/*---------------------------------------------------------------------------*\
  =========                 |
  \\      /  F ield         | OpenFOAM: The Open Source CFD Toolbox
   \\    /   O peration     | Website:  https://openfoam.org
    \\  /    A nd           | Version:  6
     \\/     M anipulation  |
\*---------------------------------------------------------------------------*/
Build  : 6-e29811f5dff8
Exec   : gtawFoam
Date   : Sep 25 2021
Time   : 22:51:15
Host   : "yeadon"
PID    : 20258
I/O    : uncollated
Case   : /home/will/OpenFOAM/will-6/run/boxTube-13
nProcs : 1
sigFpe : Enabling floating point exception trapping (FOAM_SIGFPE).
fileModificationChecking : Monitoring run-time modified files using timeStampMaster (fileModificationSkew 10)
allowSystemOperations : Allowing user-supplied system call operations

// * * * * * * * * * * * * * * * * * * * * * * * * * * * * * * * * * * * * * //
Create time

Create mesh for time = 0


PIMPLE: No convergence criteria found


PIMPLE: Operating solver in PISO mode

Reading Transport Properties

Reading field p_rgh

Reading field U

Reading/calculating face flux field phi

Making mixture

threePhaseMixture called
Selecting incompressible transport model Newtonian
Selecting incompressible transport model Newtonian
Selecting incompressible transport model Newtonian
Cp pre a, b, c, d, e11111
Cp pre a, b, c, d, e11111
Cp pre a, b, c, d, e11111
Cp pre a, b, c, d, e11111
Cp pre a, b, c, d, e11111
materialName not recognized
Cp post a, b, c, d, e11111
Cp post a, b, c, d, e11111
Cp post a, b, c, d, e11111
Cp post a, b, c, d, e11111
Cp post a, b, c, d, e11111
gtawIncompressibleThreePhaseMixture Correct Called nu
gtawIncompressibleThreePhaseMixture Correct Called k
Cp pre a, b, c, d, e11111
Cp pre a, b, c, d, e11111
Cp pre a, b, c, d, e11111
Cp pre a, b, c, d, e11111
Cp pre a, b, c, d, e11111
materialName not recognized
Cp post a, b, c, d, e11111
Cp post a, b, c, d, e11111
Cp post a, b, c, d, e11111
Cp post a, b, c, d, e11111
Cp post a, b, c, d, e11111
Mixture made

Selecting turbulence model type laminar
Selecting laminar stress model Stokes

Reading g

Reading hRef
Calculating field g.h

No MRF models present

No finite volume options present
Solid Mom kill

Reading / calculating rho*cp

Reading / calculating rhoPhi*cp

Creating field k_field

Reading physicalProperties

Reading field sigma

--> FOAM Warning : 
    From function bool Foam::GeometricField<Type, PatchField, GeoMesh>::readIfPresent() [with Type = double; PatchField = Foam::fvPatchField; GeoMesh = Foam::volMesh]
    in file /opt/openfoam6/src/OpenFOAM/lnInclude/GeometricField.C at line 105
    read option IOobject::MUST_READ or MUST_READ_IF_MODIFIED suggests that a read constructor for field muMagR would be more appropriate.
Reading field ElPot

Reading field A

Calculating Magnetic Field B

Calculating Field UxB

Calculating Field UxBS

Calculating Field US

Calculating Field Psi UxB

Calc Jn

Calc Jnv

Calculating Field J0

Calculating Probes

Calc lorentz

Making Source

 Generating EM Source Field 
emSourceField max: 0 min: 0
emSource0 max: 1 min: 9.38348e-269
--> FOAM Warning : 
    From function bool Foam::GeometricField<Type, PatchField, GeoMesh>::readIfPresent() [with Type = double; PatchField = Foam::fvPatchField; GeoMesh = Foam::volMesh]
    in file /opt/openfoam6/src/OpenFOAM/lnInclude/GeometricField.C at line 105
    read option IOobject::MUST_READ or MUST_READ_IF_MODIFIED suggests that a read constructor for field alpha2WeightedAv would be more appropriate.
Calculating PrandtlNumber

Creating field kinetic energy K

Reading Source Properties

Making Source

 Q_arc 
 Generating Heat Source Field 
heatSourceField max: 1 min: 0
 delHField 
source0 max: 1 min: 2.34419e-105
Reading Source Properties

Making Source

Reading Source Properties

Making filler source

 Generating Heat Alpha Field 
heatAlphaField max: 0 min: 0
alpha0 max: 1 min: 0.999057
GAMG:  Solving for pcorr, Initial residual = 0, Final residual = 0, No Iterations 0
GAMG:  Solving for pcorr, Initial residual = 0, Final residual = 0, No Iterations 0
time step continuity errors : sum local = 0, global = 0, cumulative = 0
Courant Number mean: 0 max: 0

Starting time loop

Reading set description:
    line

Courant Number mean: 0 max: 0
Interface Courant Number mean: 0 max: 0
deltaT = 0.00119048
Time = 0.00119048

 Generating Heat Alpha Field 
heatAlphaField max: 1 min: 0.999057
alpha0 max: 1 min: 0.999057
diagonal:  Solving for alpha.Phase1, Initial residual = 0, Final residual = 0, No Iterations 0
Phase Change 

diagonal:  Solving for alpha.Phase2, Initial residual = 0, Final residual = 0, No Iterations 0
diagonal:  Solving for alpha.Phase3, Initial residual = 0, Final residual = 0, No Iterations 0
2
alphaEqn Complete

 alpha2 Weighted Fraction: 0
gtawIncompressibleThreePhaseMixture Correct Called nu
nu Complete
mixture Complete
subCycle Complete
Marg Off
UEqn.H
UEqn
DILUPBiCG:  Solving for Ux, Initial residual = 4.33597e-08, Final residual = 1.52391e-24, No Iterations 1
DILUPBiCG:  Solving for Uz, Initial residual = 0.00444645, Final residual = 4.1015e-23, No Iterations 1
UEqn End
GAMG:  Solving for p_rgh, Initial residual = 0.598266, Final residual = 0.70843, No Iterations 10
GAMG:  Solving for p_rgh, Initial residual = 0.377216, Final residual = 0.3591, No Iterations 10
time step continuity errors : sum local = 1.1219e-13, global = -6.12191e-15, cumulative = -6.12191e-15
GAMG:  Solving for p_rgh, Initial residual = 0.359918, Final residual = 0.358859, No Iterations 10
GAMG:  Solving for p_rgh, Initial residual = 0.366101, Final residual = 0.396694, No Iterations 10
time step continuity errors : sum local = 1.19711e-13, global = -7.83575e-15, cumulative = -1.39577e-14
GAMG:  Solving for p_rgh, Initial residual = 0.375219, Final residual = 0.36617, No Iterations 10
GAMGPCG:  Solving for p_rgh, Initial residual = 0.38067, Final residual = 1.36474e-08, No Iterations 5
time step continuity errors : sum local = 1.27407e-13, global = -1.46931e-14, cumulative = -2.86508e-14

 TEqn Disperse 


 New alphaf terms

 New kf terms
Applying sauce
 Q_arc 
 Generating Heat Source Field 
heatSourceField max: 1 min: 0
 delHField 
source0 max: 1 min: 2.34419e-105

 Latent heat 

 Reached point X
swak4Foam: Allocating new repository for sampledGlobalVariables

 TEqn End 

smoothSolver:  Solving for T, Initial residual = 1, Final residual = 0.8341, No Iterations 1000

 TEqn Solved 

interfaceCells 198 weldCells 0 percentage 0
ExecutionTime = 0.55 s  ClockTime = 0 s

Courant Number mean: 1.59428e-13 max: 4.08586e-12
Interface Courant Number mean: 0 max: 0
deltaT = 0.00141156
Time = 0.00260204

 Generating Heat Alpha Field 
heatAlphaField max: 1 min: 0.999057
alpha0 max: 1 min: 0.999057
diagonal:  Solving for alpha.Phase1, Initial residual = 0, Final residual = 0, No Iterations 0
Phase Change 

diagonal:  Solving for alpha.Phase2, Initial residual = 0, Final residual = 0, No Iterations 0
diagonal:  Solving for alpha.Phase3, Initial residual = 0, Final residual = 0, No Iterations 0
2
alphaEqn Complete

 alpha2 Weighted Fraction: 0
gtawIncompressibleThreePhaseMixture Correct Called nu
nu Complete
mixture Complete
subCycle Complete
Marg Off
UEqn.H
UEqn
DILUPBiCG:  Solving for Ux, Initial residual = 4.9506e-07, Final residual = 1.10598e-22, No Iterations 1
DILUPBiCG:  Solving for Uz, Initial residual = 3.0186e-09, Final residual = 2.71776e-24, No Iterations 1
UEqn End
GAMG:  Solving for p_rgh, Initial residual = 0.805945, Final residual = 0.298365, No Iterations 10
GAMG:  Solving for p_rgh, Initial residual = 0.278677, Final residual = 0.277031, No Iterations 10
time step continuity errors : sum local = 1.55986e-13, global = -1.01626e-14, cumulative = -3.88133e-14
GAMG:  Solving for p_rgh, Initial residual = 0.27782, Final residual = 0.277742, No Iterations 10
GAMG:  Solving for p_rgh, Initial residual = 0.280299, Final residual = 0.277695, No Iterations 10
time step continuity errors : sum local = 1.5303e-13, global = -7.83998e-15, cumulative = -4.66533e-14
GAMG:  Solving for p_rgh, Initial residual = 0.277875, Final residual = 0.267894, No Iterations 10
GAMGPCG:  Solving for p_rgh, Initial residual = 0.269219, Final residual = 4.33809e-09, No Iterations 5
time step continuity errors : sum local = 1.78445e-13, global = -2.14869e-14, cumulative = -6.81402e-14

 TEqn Disperse 


 New alphaf terms

 New kf terms
Applying sauce
 Q_arc 
 Generating Heat Source Field 
heatSourceField max: 1 min: 0
 delHField 
source0 max: 1 min: 2.34419e-105

 Latent heat 

 Reached point X

 TEqn End 

smoothSolver:  Solving for T, Initial residual = 0.00673343, Final residual = 9.54799e-05, No Iterations 49

 TEqn Solved 

interfaceCells 198 weldCells 0 percentage 0
ExecutionTime = 0.69 s  ClockTime = 0 s

Courant Number mean: 2.6802e-13 max: 6.12388e-12
Interface Courant Number mean: 0 max: 0
deltaT = 0.00167928
Time = 0.00428132

 Generating Heat Alpha Field 
heatAlphaField max: 1 min: 0.999057
alpha0 max: 1 min: 0.999057
diagonal:  Solving for alpha.Phase1, Initial residual = 0, Final residual = 0, No Iterations 0
Phase Change 

diagonal:  Solving for alpha.Phase2, Initial residual = 0, Final residual = 0, No Iterations 0
diagonal:  Solving for alpha.Phase3, Initial residual = 0, Final residual = 0, No Iterations 0
2
alphaEqn Complete

 alpha2 Weighted Fraction: 0
gtawIncompressibleThreePhaseMixture Correct Called nu
nu Complete
mixture Complete
subCycle Complete
Marg Off
UEqn.H
UEqn
DILUPBiCG:  Solving for Ux, Initial residual = 1.98741e-07, Final residual = 8.71586e-23, No Iterations 1
DILUPBiCG:  Solving for Uz, Initial residual = 1.59497e-09, Final residual = 4.09112e-24, No Iterations 1
UEqn End
GAMG:  Solving for p_rgh, Initial residual = 0.791127, Final residual = 0.279368, No Iterations 10
GAMG:  Solving for p_rgh, Initial residual = 0.294883, Final residual = 0.324106, No Iterations 10
time step continuity errors : sum local = 2.19852e-13, global = 2.52104e-14, cumulative = -4.29298e-14
GAMG:  Solving for p_rgh, Initial residual = 0.317064, Final residual = 0.30675, No Iterations 10
GAMG:  Solving for p_rgh, Initial residual = 0.314437, Final residual = 0.305952, No Iterations 10
time step continuity errors : sum local = 2.16017e-13, global = 3.07356e-14, cumulative = -1.21941e-14
GAMG:  Solving for p_rgh, Initial residual = 0.30829, Final residual = 0.318042, No Iterations 10
GAMGPCG:  Solving for p_rgh, Initial residual = 0.313591, Final residual = 1.10911e-08, No Iterations 5
time step continuity errors : sum local = 2.45138e-13, global = 2.86619e-14, cumulative = 1.64678e-14

 TEqn Disperse 


 New alphaf terms

 New kf terms
Applying sauce
 Q_arc 
 Generating Heat Source Field 
heatSourceField max: 1 min: 0
 delHField 
source0 max: 1 min: 2.34419e-105

 Latent heat 

 Reached point X

 TEqn End 

smoothSolver:  Solving for T, Initial residual = 0.00791929, Final residual = 9.74068e-05, No Iterations 60

 TEqn Solved 

interfaceCells 198 weldCells 0 percentage 0
ExecutionTime = 0.84 s  ClockTime = 1 s

Courant Number mean: 3.63136e-13 max: 9.85944e-12
Interface Courant Number mean: 0 max: 0
deltaT = 0.00199414
Time = 0.00627546

 Generating Heat Alpha Field 
heatAlphaField max: 1 min: 0.999057
alpha0 max: 1 min: 0.999057
diagonal:  Solving for alpha.Phase1, Initial residual = 0, Final residual = 0, No Iterations 0
Phase Change 

diagonal:  Solving for alpha.Phase2, Initial residual = 0, Final residual = 0, No Iterations 0
diagonal:  Solving for alpha.Phase3, Initial residual = 0, Final residual = 0, No Iterations 0
2
alphaEqn Complete

 alpha2 Weighted Fraction: 0
gtawIncompressibleThreePhaseMixture Correct Called nu
nu Complete
mixture Complete
subCycle Complete
Marg Off
UEqn.H
UEqn
DILUPBiCG:  Solving for Ux, Initial residual = 3.04584e-08, Final residual = 2.68084e-23, No Iterations 1
DILUPBiCG:  Solving for Uz, Initial residual = 2.69707e-09, Final residual = 2.45105e-24, No Iterations 1
UEqn End
GAMG:  Solving for p_rgh, Initial residual = 0.804745, Final residual = 0.214478, No Iterations 10
GAMG:  Solving for p_rgh, Initial residual = 0.249073, Final residual = 0.248392, No Iterations 10
time step continuity errors : sum local = 2.46818e-13, global = -2.46507e-15, cumulative = 1.40027e-14
GAMG:  Solving for p_rgh, Initial residual = 0.25022, Final residual = 0.237361, No Iterations 10
GAMG:  Solving for p_rgh, Initial residual = 0.237229, Final residual = 0.252558, No Iterations 10
time step continuity errors : sum local = 2.36863e-13, global = -1.23465e-15, cumulative = 1.2768e-14
GAMG:  Solving for p_rgh, Initial residual = 0.254603, Final residual = 0.247036, No Iterations 10
GAMGPCG:  Solving for p_rgh, Initial residual = 0.24878, Final residual = 7.00197e-09, No Iterations 5
time step continuity errors : sum local = 2.98858e-13, global = 9.83852e-15, cumulative = 2.26066e-14

 TEqn Disperse 


 New alphaf terms

 New kf terms
Applying sauce
 Q_arc 
 Generating Heat Source Field 
heatSourceField max: 1 min: 0
 delHField 
source0 max: 1 min: 2.34419e-105

 Latent heat 

 Reached point X

 TEqn End 

smoothSolver:  Solving for T, Initial residual = 0.00928312, Final residual = 9.49555e-05, No Iterations 74

 TEqn Solved 

interfaceCells 198 weldCells 0 percentage 0
ExecutionTime = 0.99 s  ClockTime = 1 s

Courant Number mean: 3.62663e-13 max: 1.17273e-11
Interface Courant Number mean: 0 max: 0
deltaT = 0.00234311
Time = 0.00861857

 Generating Heat Alpha Field 
heatAlphaField max: 1 min: 0.999057
alpha0 max: 1 min: 0.999057
diagonal:  Solving for alpha.Phase1, Initial residual = 0, Final residual = 0, No Iterations 0
Phase Change 

diagonal:  Solving for alpha.Phase2, Initial residual = 0, Final residual = 0, No Iterations 0
diagonal:  Solving for alpha.Phase3, Initial residual = 0, Final residual = 0, No Iterations 0
2
alphaEqn Complete

 alpha2 Weighted Fraction: 0
gtawIncompressibleThreePhaseMixture Correct Called nu
nu Complete
mixture Complete
subCycle Complete
Marg Off
UEqn.H
UEqn
DILUPBiCG:  Solving for Ux, Initial residual = 5.50706e-09, Final residual = 3.66799e-24, No Iterations 1
DILUPBiCG:  Solving for Uz, Initial residual = 2.27157e-08, Final residual = 2.08066e-23, No Iterations 1
UEqn End
GAMG:  Solving for p_rgh, Initial residual = 0.775835, Final residual = 0.304695, No Iterations 10
GAMG:  Solving for p_rgh, Initial residual = 0.32009, Final residual = 0.310604, No Iterations 10
time step continuity errors : sum local = 4.70808e-13, global = -2.89151e-14, cumulative = -6.30851e-15
GAMG:  Solving for p_rgh, Initial residual = 0.318698, Final residual = 0.34598, No Iterations 10
GAMG:  Solving for p_rgh, Initial residual = 0.334485, Final residual = 0.320026, No Iterations 10
time step continuity errors : sum local = 4.76096e-13, global = -2.89156e-14, cumulative = -3.52242e-14
GAMG:  Solving for p_rgh, Initial residual = 0.330894, Final residual = 0.333572, No Iterations 10
GAMGPCG:  Solving for p_rgh, Initial residual = 0.334609, Final residual = 9.11698e-09, No Iterations 5
time step continuity errors : sum local = 5.27735e-13, global = -7.03623e-14, cumulative = -1.05586e-13

 TEqn Disperse 


 New alphaf terms

 New kf terms
Applying sauce
 Q_arc 
 Generating Heat Source Field 
heatSourceField max: 1 min: 0
 delHField 
source0 max: 1 min: 2.34419e-105

 Latent heat 

 Reached point X

 TEqn End 

smoothSolver:  Solving for T, Initial residual = 0.0107487, Final residual = 9.7524e-05, No Iterations 89

 TEqn Solved 

interfaceCells 198 weldCells 0 percentage 0
ExecutionTime = 1.14 s  ClockTime = 1 s

Courant Number mean: 8.5126e-13 max: 1.60837e-11
Interface Courant Number mean: 0 max: 0
deltaT = 0.00276913
Time = 0.0113877

 Generating Heat Alpha Field 
heatAlphaField max: 1 min: 0.999057
alpha0 max: 1 min: 0.999057
diagonal:  Solving for alpha.Phase1, Initial residual = 0, Final residual = 0, No Iterations 0
Phase Change 

diagonal:  Solving for alpha.Phase2, Initial residual = 0, Final residual = 0, No Iterations 0
diagonal:  Solving for alpha.Phase3, Initial residual = 0, Final residual = 0, No Iterations 0
2
alphaEqn Complete

 alpha2 Weighted Fraction: 0
gtawIncompressibleThreePhaseMixture Correct Called nu
nu Complete
mixture Complete
subCycle Complete
Marg Off
UEqn.H
UEqn
DILUPBiCG:  Solving for Ux, Initial residual = 2.24531e-08, Final residual = 4.90961e-24, No Iterations 1
DILUPBiCG:  Solving for Uz, Initial residual = 9.71455e-10, Final residual = 8.65726e-25, No Iterations 1
UEqn End
GAMG:  Solving for p_rgh, Initial residual = 0.831066, Final residual = 0.29845, No Iterations 10
GAMG:  Solving for p_rgh, Initial residual = 0.298487, Final residual = 0.28989, No Iterations 10
time step continuity errors : sum local = 6.19883e-13, global = -7.74601e-14, cumulative = -1.83047e-13
GAMG:  Solving for p_rgh, Initial residual = 0.291237, Final residual = 0.303667, No Iterations 10
GAMG:  Solving for p_rgh, Initial residual = 0.301355, Final residual = 0.28048, No Iterations 10
time step continuity errors : sum local = 6.08021e-13, global = -7.4043e-14, cumulative = -2.5709e-13
GAMG:  Solving for p_rgh, Initial residual = 0.283534, Final residual = 0.278091, No Iterations 10
GAMGPCG:  Solving for p_rgh, Initial residual = 0.27982, Final residual = 9.86588e-09, No Iterations 5
time step continuity errors : sum local = 6.71633e-13, global = -8.54359e-14, cumulative = -3.42526e-13

 TEqn Disperse 


 New alphaf terms

 New kf terms
Applying sauce
 Q_arc 
 Generating Heat Source Field 
heatSourceField max: 1 min: 0
 delHField 
source0 max: 1 min: 2.34419e-105

 Latent heat 

 Reached point X

 TEqn End 

smoothSolver:  Solving for T, Initial residual = 0.0124906, Final residual = 9.88481e-05, No Iterations 108

 TEqn Solved 

interfaceCells 198 weldCells 0 percentage 0
ExecutionTime = 1.3 s  ClockTime = 1 s

Courant Number mean: 9.43486e-13 max: 2.51216e-11
Interface Courant Number mean: 0 max: 0
deltaT = 0.00328194
Time = 0.0146696

 Generating Heat Alpha Field 
heatAlphaField max: 1 min: 0.999057
alpha0 max: 1 min: 0.999057
diagonal:  Solving for alpha.Phase1, Initial residual = 0, Final residual = 0, No Iterations 0
Phase Change 

diagonal:  Solving for alpha.Phase2, Initial residual = 0, Final residual = 0, No Iterations 0
diagonal:  Solving for alpha.Phase3, Initial residual = 0, Final residual = 0, No Iterations 0
2
alphaEqn Complete

 alpha2 Weighted Fraction: 0
gtawIncompressibleThreePhaseMixture Correct Called nu
nu Complete
mixture Complete
subCycle Complete
Marg Off
UEqn.H
UEqn
DILUPBiCG:  Solving for Ux, Initial residual = 4.39835e-08, Final residual = 5.85031e-23, No Iterations 1
DILUPBiCG:  Solving for Uz, Initial residual = 1.01409e-09, Final residual = 1.43895e-24, No Iterations 1
UEqn End
GAMG:  Solving for p_rgh, Initial residual = 0.804237, Final residual = 0.289191, No Iterations 10
GAMG:  Solving for p_rgh, Initial residual = 0.313306, Final residual = 0.310385, No Iterations 10
time step continuity errors : sum local = 8.0088e-13, global = -5.26515e-14, cumulative = -3.95177e-13
GAMG:  Solving for p_rgh, Initial residual = 0.303499, Final residual = 0.307244, No Iterations 10
GAMG:  Solving for p_rgh, Initial residual = 0.315303, Final residual = 0.313225, No Iterations 10
time step continuity errors : sum local = 7.8203e-13, global = -6.34516e-14, cumulative = -4.58629e-13
GAMG:  Solving for p_rgh, Initial residual = 0.312384, Final residual = 0.317651, No Iterations 10
GAMGPCG:  Solving for p_rgh, Initial residual = 0.312432, Final residual = 8.09247e-09, No Iterations 5
time step continuity errors : sum local = 8.80846e-13, global = -1.45806e-13, cumulative = -6.04435e-13

 TEqn Disperse 


 New alphaf terms

 New kf terms
Applying sauce
 Q_arc 
 Generating Heat Source Field 
heatSourceField max: 1 min: 0
 delHField 
source0 max: 1 min: 2.34419e-105

 Latent heat 

 Reached point X

 TEqn End 

smoothSolver:  Solving for T, Initial residual = 0.0145191, Final residual = 9.78309e-05, No Iterations 132

 TEqn Solved 

interfaceCells 198 weldCells 0 percentage 0
ExecutionTime = 1.46 s  ClockTime = 1 s

Courant Number mean: 1.59918e-12 max: 4.57522e-11
Interface Courant Number mean: 0 max: 0
deltaT = 0.00387865
Time = 0.0185483

 Generating Heat Alpha Field 
heatAlphaField max: 1 min: 0.999057
alpha0 max: 1 min: 0.999057
diagonal:  Solving for alpha.Phase1, Initial residual = 0, Final residual = 0, No Iterations 0
Phase Change 

diagonal:  Solving for alpha.Phase2, Initial residual = 0, Final residual = 0, No Iterations 0
diagonal:  Solving for alpha.Phase3, Initial residual = 0, Final residual = 0, No Iterations 0
2
alphaEqn Complete

 alpha2 Weighted Fraction: 0
gtawIncompressibleThreePhaseMixture Correct Called nu
nu Complete
mixture Complete
subCycle Complete
Marg Off
UEqn.H
UEqn
DILUPBiCG:  Solving for Ux, Initial residual = 4.30056e-09, Final residual = 4.79642e-24, No Iterations 1
DILUPBiCG:  Solving for Uz, Initial residual = 9.31251e-10, Final residual = 1.85984e-24, No Iterations 1
UEqn End
GAMG:  Solving for p_rgh, Initial residual = 0.789864, Final residual = 0.287971, No Iterations 10
GAMG:  Solving for p_rgh, Initial residual = 0.305415, Final residual = 0.307023, No Iterations 10
time step continuity errors : sum local = 1.01389e-12, global = 3.82871e-14, cumulative = -5.66148e-13
GAMG:  Solving for p_rgh, Initial residual = 0.31045, Final residual = 0.310602, No Iterations 10
GAMG:  Solving for p_rgh, Initial residual = 0.306047, Final residual = 0.304962, No Iterations 10
time step continuity errors : sum local = 1.01468e-12, global = 4.14782e-14, cumulative = -5.2467e-13
GAMG:  Solving for p_rgh, Initial residual = 0.306676, Final residual = 0.304695, No Iterations 10
GAMGPCG:  Solving for p_rgh, Initial residual = 0.305563, Final residual = 5.63827e-09, No Iterations 5
time step continuity errors : sum local = 1.16128e-12, global = 2.07361e-14, cumulative = -5.03934e-13

 TEqn Disperse 


 New alphaf terms

 New kf terms
Applying sauce
 Q_arc 
 Generating Heat Source Field 
heatSourceField max: 1 min: 0
 delHField 
source0 max: 1 min: 2.34419e-105

 Latent heat 

 Reached point X

 TEqn End 

smoothSolver:  Solving for T, Initial residual = 0.0167821, Final residual = 9.8647e-05, No Iterations 160

 TEqn Solved 

interfaceCells 198 weldCells 0 percentage 0
ExecutionTime = 1.62 s  ClockTime = 1 s

Courant Number mean: 1.37523e-12 max: 2.72597e-11
Interface Courant Number mean: 0 max: 0
deltaT = 0.00452509
Time = 0.0230734

 Generating Heat Alpha Field 
heatAlphaField max: 1 min: 0.999057
alpha0 max: 1 min: 0.999057
diagonal:  Solving for alpha.Phase1, Initial residual = 0, Final residual = 0, No Iterations 0
Phase Change 

diagonal:  Solving for alpha.Phase2, Initial residual = 0, Final residual = 0, No Iterations 0
diagonal:  Solving for alpha.Phase3, Initial residual = 0, Final residual = 0, No Iterations 0
2
alphaEqn Complete

 alpha2 Weighted Fraction: 0
gtawIncompressibleThreePhaseMixture Correct Called nu
nu Complete
mixture Complete
subCycle Complete
Marg Off
UEqn.H
UEqn
DILUPBiCG:  Solving for Ux, Initial residual = 1.21547e-07, Final residual = 8.11558e-23, No Iterations 1
DILUPBiCG:  Solving for Uz, Initial residual = 3.36998e-08, Final residual = 1.20054e-23, No Iterations 1
UEqn End
GAMG:  Solving for p_rgh, Initial residual = 0.821892, Final residual = 0.32168, No Iterations 10
GAMG:  Solving for p_rgh, Initial residual = 0.347344, Final residual = 0.366285, No Iterations 10
time step continuity errors : sum local = 1.88501e-12, global = -2.53148e-13, cumulative = -7.57082e-13
GAMG:  Solving for p_rgh, Initial residual = 0.355099, Final residual = 0.361569, No Iterations 10
GAMG:  Solving for p_rgh, Initial residual = 0.370014, Final residual = 0.340221, No Iterations 10
time step continuity errors : sum local = 1.83683e-12, global = -2.75484e-13, cumulative = -1.03257e-12
GAMG:  Solving for p_rgh, Initial residual = 0.34651, Final residual = 0.365115, No Iterations 10
GAMGPCG:  Solving for p_rgh, Initial residual = 0.360497, Final residual = 8.48224e-09, No Iterations 5
time step continuity errors : sum local = 2.04091e-12, global = -3.31331e-13, cumulative = -1.3639e-12

 TEqn Disperse 


 New alphaf terms

 New kf terms
Applying sauce
 Q_arc 
 Generating Heat Source Field 
heatSourceField max: 1 min: 0
 delHField 
source0 max: 1 min: 2.34419e-105

 Latent heat 

 Reached point X

 TEqn End 

smoothSolver:  Solving for T, Initial residual = 0.0190975, Final residual = 9.89624e-05, No Iterations 191

 TEqn Solved 

interfaceCells 198 weldCells 0 percentage 0
ExecutionTime = 1.79 s  ClockTime = 2 s

Courant Number mean: 3.29599e-12 max: 1.02956e-10
Interface Courant Number mean: 0 max: 0
deltaT = 0.00512844
Time = 0.0282018

 Generating Heat Alpha Field 
heatAlphaField max: 1 min: 0.999057
alpha0 max: 1 min: 0.999057
diagonal:  Solving for alpha.Phase1, Initial residual = 0, Final residual = 0, No Iterations 0
Phase Change 

diagonal:  Solving for alpha.Phase2, Initial residual = 0, Final residual = 0, No Iterations 0
diagonal:  Solving for alpha.Phase3, Initial residual = 0, Final residual = 0, No Iterations 0
2
alphaEqn Complete

 alpha2 Weighted Fraction: 0
gtawIncompressibleThreePhaseMixture Correct Called nu
nu Complete
mixture Complete
subCycle Complete
Marg Off
UEqn.H
UEqn
DILUPBiCG:  Solving for Ux, Initial residual = 1.07691e-08, Final residual = 2.42275e-24, No Iterations 1
DILUPBiCG:  Solving for Uz, Initial residual = 5.78043e-10, Final residual = 7.12619e-25, No Iterations 1
UEqn End
GAMG:  Solving for p_rgh, Initial residual = 0.861034, Final residual = 0.281251, No Iterations 10
GAMG:  Solving for p_rgh, Initial residual = 0.281349, Final residual = 0.279784, No Iterations 10
time step continuity errors : sum local = 2.28657e-12, global = -1.05481e-13, cumulative = -1.46938e-12
GAMG:  Solving for p_rgh, Initial residual = 0.277658, Final residual = 0.270164, No Iterations 10
GAMG:  Solving for p_rgh, Initial residual = 0.270844, Final residual = 0.294405, No Iterations 10
time step continuity errors : sum local = 2.27251e-12, global = -1.51891e-13, cumulative = -1.62127e-12
GAMG:  Solving for p_rgh, Initial residual = 0.290577, Final residual = 0.285339, No Iterations 10
GAMGPCG:  Solving for p_rgh, Initial residual = 0.287635, Final residual = 5.29791e-09, No Iterations 5
time step continuity errors : sum local = 2.5018e-12, global = -3.83949e-13, cumulative = -2.00522e-12

 TEqn Disperse 


 New alphaf terms

 New kf terms
Applying sauce
 Q_arc 
 Generating Heat Source Field 
heatSourceField max: 1 min: 0
 delHField 
source0 max: 1 min: 2.34419e-105

 Latent heat 

 Reached point X

 TEqn End 

smoothSolver:  Solving for T, Initial residual = 0.0210687, Final residual = 9.96942e-05, No Iterations 220

 TEqn Solved 

interfaceCells 198 weldCells 0 percentage 0
ExecutionTime = 1.97 s  ClockTime = 2 s

Courant Number mean: 4.99921e-12 max: 1.05806e-10
Interface Courant Number mean: 0 max: 0
deltaT = 0.00598318
Time = 0.034185

 Generating Heat Alpha Field 
heatAlphaField max: 1 min: 0.999057
alpha0 max: 1 min: 0.999057
diagonal:  Solving for alpha.Phase1, Initial residual = 0, Final residual = 0, No Iterations 0
Phase Change 

diagonal:  Solving for alpha.Phase2, Initial residual = 0, Final residual = 0, No Iterations 0
diagonal:  Solving for alpha.Phase3, Initial residual = 0, Final residual = 0, No Iterations 0
2
alphaEqn Complete

 alpha2 Weighted Fraction: 0
gtawIncompressibleThreePhaseMixture Correct Called nu
nu Complete
mixture Complete
subCycle Complete
Marg Off
UEqn.H
UEqn
DILUPBiCG:  Solving for Ux, Initial residual = 2.5889e-08, Final residual = 2.04306e-24, No Iterations 1
DILUPBiCG:  Solving for Uz, Initial residual = 2.96542e-10, Final residual = 3.95198e-25, No Iterations 1
UEqn End
GAMG:  Solving for p_rgh, Initial residual = 0.821085, Final residual = 0.288688, No Iterations 10
GAMG:  Solving for p_rgh, Initial residual = 0.306343, Final residual = 0.312378, No Iterations 10
time step continuity errors : sum local = 2.80371e-12, global = -1.67362e-13, cumulative = -2.17258e-12
GAMG:  Solving for p_rgh, Initial residual = 0.312358, Final residual = 0.298121, No Iterations 10
GAMG:  Solving for p_rgh, Initial residual = 0.301371, Final residual = 0.311149, No Iterations 10
time step continuity errors : sum local = 2.80994e-12, global = -1.57517e-13, cumulative = -2.3301e-12
GAMG:  Solving for p_rgh, Initial residual = 0.309508, Final residual = 0.321974, No Iterations 10
GAMGPCG:  Solving for p_rgh, Initial residual = 0.325642, Final residual = 4.8935e-09, No Iterations 5
time step continuity errors : sum local = 3.36087e-12, global = -2.26436e-13, cumulative = -2.55653e-12

 TEqn Disperse 


 New alphaf terms

 New kf terms
Applying sauce
 Q_arc 
 Generating Heat Source Field 
heatSourceField max: 1 min: 0
 delHField 
source0 max: 1 min: 2.34419e-105

 Latent heat 

 Reached point X

 TEqn End 

smoothSolver:  Solving for T, Initial residual = 0.0238466, Final residual = 9.83308e-05, No Iterations 263

 TEqn Solved 

interfaceCells 198 weldCells 0 percentage 0
ExecutionTime = 2.15 s  ClockTime = 2 s

Courant Number mean: 4.00118e-12 max: 8.5255e-11
Interface Courant Number mean: 0 max: 0
deltaT = 0.0065815
Time = 0.0407665

 Generating Heat Alpha Field 
heatAlphaField max: 1 min: 0.999057
alpha0 max: 1 min: 0.999057
diagonal:  Solving for alpha.Phase1, Initial residual = 0, Final residual = 0, No Iterations 0
Phase Change 

diagonal:  Solving for alpha.Phase2, Initial residual = 0, Final residual = 0, No Iterations 0
diagonal:  Solving for alpha.Phase3, Initial residual = 0, Final residual = 0, No Iterations 0
2
alphaEqn Complete

 alpha2 Weighted Fraction: 0
gtawIncompressibleThreePhaseMixture Correct Called nu
nu Complete
mixture Complete
subCycle Complete
Marg Off
UEqn.H
UEqn
DILUPBiCG:  Solving for Ux, Initial residual = 7.41357e-09, Final residual = 1.55293e-23, No Iterations 1
DILUPBiCG:  Solving for Uz, Initial residual = 5.89596e-10, Final residual = 1.57924e-24, No Iterations 1
UEqn End
GAMG:  Solving for p_rgh, Initial residual = 0.843643, Final residual = 0.255403, No Iterations 10
GAMG:  Solving for p_rgh, Initial residual = 0.288725, Final residual = 0.28784, No Iterations 10
time step continuity errors : sum local = 3.1587e-12, global = -2.27409e-13, cumulative = -2.78394e-12
GAMG:  Solving for p_rgh, Initial residual = 0.28314, Final residual = 0.281899, No Iterations 10
GAMG:  Solving for p_rgh, Initial residual = 0.2873, Final residual = 0.281747, No Iterations 10
time step continuity errors : sum local = 3.21363e-12, global = -2.32826e-13, cumulative = -3.01677e-12
GAMG:  Solving for p_rgh, Initial residual = 0.276191, Final residual = 0.271298, No Iterations 10
GAMGPCG:  Solving for p_rgh, Initial residual = 0.27385, Final residual = 4.9744e-09, No Iterations 5
time step continuity errors : sum local = 3.33982e-12, global = -6.65989e-13, cumulative = -3.68276e-12

 TEqn Disperse 


 New alphaf terms

 New kf terms
Applying sauce
 Q_arc 
 Generating Heat Source Field 
heatSourceField max: 1 min: 0
 delHField 
source0 max: 1 min: 2.34419e-105

 Latent heat 

 Reached point X

 TEqn End 

smoothSolver:  Solving for T, Initial residual = 0.0254298, Final residual = 9.93124e-05, No Iterations 292

 TEqn Solved 

interfaceCells 198 weldCells 0 percentage 0
ExecutionTime = 2.34 s  ClockTime = 2 s

Courant Number mean: 7.27933e-12 max: 1.95429e-10
Interface Courant Number mean: 0 max: 0
deltaT = 0.00740419
Time = 0.0481707

 Generating Heat Alpha Field 
heatAlphaField max: 1 min: 0.999057
alpha0 max: 1 min: 0.999057
diagonal:  Solving for alpha.Phase1, Initial residual = 0, Final residual = 0, No Iterations 0
Phase Change 

diagonal:  Solving for alpha.Phase2, Initial residual = 0, Final residual = 0, No Iterations 0
diagonal:  Solving for alpha.Phase3, Initial residual = 0, Final residual = 0, No Iterations 0
2
alphaEqn Complete

 alpha2 Weighted Fraction: 0
gtawIncompressibleThreePhaseMixture Correct Called nu
nu Complete
mixture Complete
subCycle Complete
Marg Off
UEqn.H
UEqn
DILUPBiCG:  Solving for Ux, Initial residual = 2.16695e-09, Final residual = 3.13185e-24, No Iterations 1
DILUPBiCG:  Solving for Uz, Initial residual = 2.47603e-10, Final residual = 5.04344e-26, No Iterations 1
UEqn End
GAMG:  Solving for p_rgh, Initial residual = 0.816153, Final residual = 0.312089, No Iterations 10
GAMG:  Solving for p_rgh, Initial residual = 0.327388, Final residual = 0.338123, No Iterations 10
time step continuity errors : sum local = 3.93597e-12, global = 2.1319e-13, cumulative = -3.46957e-12
GAMG:  Solving for p_rgh, Initial residual = 0.333356, Final residual = 0.328471, No Iterations 10
GAMG:  Solving for p_rgh, Initial residual = 0.331702, Final residual = 0.343682, No Iterations 10
time step continuity errors : sum local = 3.92512e-12, global = 1.40095e-13, cumulative = -3.32947e-12
GAMG:  Solving for p_rgh, Initial residual = 0.339136, Final residual = 0.323245, No Iterations 10
GAMGPCG:  Solving for p_rgh, Initial residual = 0.330912, Final residual = 5.89182e-09, No Iterations 5
time step continuity errors : sum local = 4.78278e-12, global = 1.82726e-13, cumulative = -3.14675e-12

 TEqn Disperse 


 New alphaf terms

 New kf terms
Applying sauce
 Q_arc 
 Generating Heat Source Field 
heatSourceField max: 1 min: 0
 delHField 
source0 max: 1 min: 2.34419e-105

 Latent heat 

 Reached point X

 TEqn End 

smoothSolver:  Solving for T, Initial residual = 0.0276726, Final residual = 9.98117e-05, No Iterations 333

 TEqn Solved 

interfaceCells 198 weldCells 0 percentage 0
ExecutionTime = 2.53 s  ClockTime = 2 s

Courant Number mean: 5.9137e-12 max: 1.60253e-10
Interface Courant Number mean: 0 max: 0
deltaT = 0.00863822
Time = 0.0568089

 Generating Heat Alpha Field 
heatAlphaField max: 1 min: 0.999057
alpha0 max: 1 min: 0.999057
diagonal:  Solving for alpha.Phase1, Initial residual = 0, Final residual = 0, No Iterations 0
Phase Change 

diagonal:  Solving for alpha.Phase2, Initial residual = 0, Final residual = 0, No Iterations 0
diagonal:  Solving for alpha.Phase3, Initial residual = 0, Final residual = 0, No Iterations 0
2
alphaEqn Complete

 alpha2 Weighted Fraction: 0
gtawIncompressibleThreePhaseMixture Correct Called nu
nu Complete
mixture Complete
subCycle Complete
Marg Off
UEqn.H
UEqn
DILUPBiCG:  Solving for Ux, Initial residual = 2.60815e-09, Final residual = 1.82703e-25, No Iterations 1
DILUPBiCG:  Solving for Uz, Initial residual = 6.45954e-09, Final residual = 9.97618e-24, No Iterations 1
UEqn End
GAMG:  Solving for p_rgh, Initial residual = 0.835298, Final residual = 0.324145, No Iterations 10
GAMG:  Solving for p_rgh, Initial residual = 0.336722, Final residual = 0.349738, No Iterations 10
time step continuity errors : sum local = 6.15223e-12, global = 1.40707e-12, cumulative = -1.73968e-12
GAMG:  Solving for p_rgh, Initial residual = 0.357039, Final residual = 0.332699, No Iterations 10
GAMG:  Solving for p_rgh, Initial residual = 0.333851, Final residual = 0.350372, No Iterations 10
time step continuity errors : sum local = 6.302e-12, global = 1.38575e-12, cumulative = -3.53931e-13
GAMG:  Solving for p_rgh, Initial residual = 0.345696, Final residual = 0.339755, No Iterations 10
GAMGPCG:  Solving for p_rgh, Initial residual = 0.340906, Final residual = 1.07974e-08, No Iterations 5
time step continuity errors : sum local = 6.80066e-12, global = 1.336e-12, cumulative = 9.82068e-13

 TEqn Disperse 


 New alphaf terms

 New kf terms
Applying sauce
 Q_arc 
 Generating Heat Source Field 
heatSourceField max: 1 min: 0
 delHField 
source0 max: 1 min: 2.34419e-105

 Latent heat 

 Reached point X

 TEqn End 

smoothSolver:  Solving for T, Initial residual = 0.031109, Final residual = 9.87951e-05, No Iterations 397

 TEqn Solved 

interfaceCells 198 weldCells 0 percentage 0
ExecutionTime = 2.73 s  ClockTime = 2 s

Courant Number mean: 1.57207e-11 max: 4.62117e-10
Interface Courant Number mean: 0 max: 0
deltaT = 0.00863822
Time = 0.0654471

 Generating Heat Alpha Field 
heatAlphaField max: 1 min: 0.999057
alpha0 max: 1 min: 0.999057
diagonal:  Solving for alpha.Phase1, Initial residual = 0, Final residual = 0, No Iterations 0
Phase Change 

diagonal:  Solving for alpha.Phase2, Initial residual = 0, Final residual = 0, No Iterations 0
diagonal:  Solving for alpha.Phase3, Initial residual = 0, Final residual = 0, No Iterations 0
2
alphaEqn Complete

 alpha2 Weighted Fraction: 0
gtawIncompressibleThreePhaseMixture Correct Called nu
nu Complete
mixture Complete
subCycle Complete
Marg Off
UEqn.H
UEqn
DILUPBiCG:  Solving for Ux, Initial residual = 7.27557e-09, Final residual = 3.15053e-24, No Iterations 1
DILUPBiCG:  Solving for Uz, Initial residual = 4.96009e-10, Final residual = 4.96315e-25, No Iterations 1
UEqn End
GAMG:  Solving for p_rgh, Initial residual = 0.821383, Final residual = 0.293943, No Iterations 10
GAMG:  Solving for p_rgh, Initial residual = 0.28643, Final residual = 0.293448, No Iterations 10
time step continuity errors : sum local = 6.34699e-12, global = 1.20809e-12, cumulative = 2.19016e-12
GAMG:  Solving for p_rgh, Initial residual = 0.292779, Final residual = 0.29477, No Iterations 10
GAMG:  Solving for p_rgh, Initial residual = 0.289819, Final residual = 0.279151, No Iterations 10
time step continuity errors : sum local = 6.34129e-12, global = 1.1086e-12, cumulative = 3.29875e-12
GAMG:  Solving for p_rgh, Initial residual = 0.2862, Final residual = 0.28749, No Iterations 10
GAMGPCG:  Solving for p_rgh, Initial residual = 0.283379, Final residual = 9.4577e-09, No Iterations 5
time step continuity errors : sum local = 6.756e-12, global = 9.02504e-13, cumulative = 4.20126e-12

 TEqn Disperse 


 New alphaf terms

 New kf terms
Applying sauce
 Q_arc 
 Generating Heat Source Field 
heatSourceField max: 1 min: 0
 delHField 
source0 max: 1 min: 2.34419e-105

 Latent heat 

 Reached point X

 TEqn End 

smoothSolver:  Solving for T, Initial residual = 0.0301274, Final residual = 9.99248e-05, No Iterations 394

 TEqn Solved 

interfaceCells 198 weldCells 0 percentage 0
ExecutionTime = 2.94 s  ClockTime = 3 s

Courant Number mean: 1.27874e-11 max: 3.64097e-10
Interface Courant Number mean: 0 max: 0
deltaT = 0.00863822
Time = 0.0740853

 Generating Heat Alpha Field 
heatAlphaField max: 1 min: 0.999057
alpha0 max: 1 min: 0.999057
diagonal:  Solving for alpha.Phase1, Initial residual = 0, Final residual = 0, No Iterations 0
Phase Change 

diagonal:  Solving for alpha.Phase2, Initial residual = 0, Final residual = 0, No Iterations 0
diagonal:  Solving for alpha.Phase3, Initial residual = 0, Final residual = 0, No Iterations 0
2
alphaEqn Complete

 alpha2 Weighted Fraction: 0
gtawIncompressibleThreePhaseMixture Correct Called nu
nu Complete
mixture Complete
subCycle Complete
Marg Off
UEqn.H
UEqn
DILUPBiCG:  Solving for Ux, Initial residual = 2.64048e-09, Final residual = 2.89986e-24, No Iterations 1
DILUPBiCG:  Solving for Uz, Initial residual = 8.0402e-10, Final residual = 1.95921e-24, No Iterations 1
UEqn End
GAMG:  Solving for p_rgh, Initial residual = 0.834814, Final residual = 0.261208, No Iterations 10
GAMG:  Solving for p_rgh, Initial residual = 0.274934, Final residual = 0.283044, No Iterations 10
time step continuity errors : sum local = 6.16852e-12, global = 8.45656e-13, cumulative = 5.04691e-12
GAMG:  Solving for p_rgh, Initial residual = 0.280577, Final residual = 0.276553, No Iterations 10
GAMG:  Solving for p_rgh, Initial residual = 0.275447, Final residual = 0.281963, No Iterations 10
time step continuity errors : sum local = 5.9457e-12, global = 8.5987e-13, cumulative = 5.90678e-12
GAMG:  Solving for p_rgh, Initial residual = 0.282071, Final residual = 0.289048, No Iterations 10
GAMGPCG:  Solving for p_rgh, Initial residual = 0.28759, Final residual = 5.78743e-09, No Iterations 5
time step continuity errors : sum local = 6.46869e-12, global = 5.96926e-13, cumulative = 6.50371e-12

 TEqn Disperse 


 New alphaf terms

 New kf terms
Applying sauce
 Q_arc 
 Generating Heat Source Field 
heatSourceField max: 1 min: 0
 delHField 
source0 max: 1 min: 2.34419e-105

 Latent heat 

 Reached point X

 TEqn End 

smoothSolver:  Solving for T, Initial residual = 0.029238, Final residual = 9.98228e-05, No Iterations 392

 TEqn Solved 

interfaceCells 198 weldCells 0 percentage 0
ExecutionTime = 3.14 s  ClockTime = 3 s

Courant Number mean: 9.45788e-12 max: 2.5725e-10
Interface Courant Number mean: 0 max: 0
deltaT = 0.00863822
Time = 0.0827236

 Generating Heat Alpha Field 
heatAlphaField max: 1 min: 0.999057
alpha0 max: 1 min: 0.999057
diagonal:  Solving for alpha.Phase1, Initial residual = 0, Final residual = 0, No Iterations 0
Phase Change 

diagonal:  Solving for alpha.Phase2, Initial residual = 0, Final residual = 0, No Iterations 0
diagonal:  Solving for alpha.Phase3, Initial residual = 0, Final residual = 0, No Iterations 0
2
alphaEqn Complete

 alpha2 Weighted Fraction: 0
gtawIncompressibleThreePhaseMixture Correct Called nu
nu Complete
mixture Complete
subCycle Complete
Marg Off
UEqn.H
UEqn
DILUPBiCG:  Solving for Ux, Initial residual = 5.19717e-09, Final residual = 8.78789e-25, No Iterations 1
DILUPBiCG:  Solving for Uz, Initial residual = 7.42941e-10, Final residual = 1.05726e-24, No Iterations 1
UEqn End
GAMG:  Solving for p_rgh, Initial residual = 0.838671, Final residual = 0.292258, No Iterations 10
GAMG:  Solving for p_rgh, Initial residual = 0.312494, Final residual = 0.300296, No Iterations 10
time step continuity errors : sum local = 6.03097e-12, global = 9.80678e-13, cumulative = 7.48439e-12
GAMG:  Solving for p_rgh, Initial residual = 0.301061, Final residual = 0.30371, No Iterations 10
GAMG:  Solving for p_rgh, Initial residual = 0.306233, Final residual = 0.307259, No Iterations 10
time step continuity errors : sum local = 6.25237e-12, global = 1.04464e-12, cumulative = 8.52902e-12
GAMG:  Solving for p_rgh, Initial residual = 0.298248, Final residual = 0.308348, No Iterations 10
GAMGPCG:  Solving for p_rgh, Initial residual = 0.309384, Final residual = 9.85697e-09, No Iterations 5
time step continuity errors : sum local = 6.74252e-12, global = 7.31949e-13, cumulative = 9.26097e-12

 TEqn Disperse 


 New alphaf terms

 New kf terms
Applying sauce
 Q_arc 
 Generating Heat Source Field 
heatSourceField max: 1 min: 0
 delHField 
source0 max: 1 min: 2.34419e-105

 Latent heat 

 Reached point X

 TEqn End 

smoothSolver:  Solving for T, Initial residual = 0.0284322, Final residual = 9.99226e-05, No Iterations 390

 TEqn Solved 

interfaceCells 198 weldCells 0 percentage 0
ExecutionTime = 3.34 s  ClockTime = 3 s

Courant Number mean: 1.00509e-11 max: 2.99472e-10
Interface Courant Number mean: 0 max: 0
deltaT = 0.00863822
Time = 0.0913618

 Generating Heat Alpha Field 
heatAlphaField max: 1 min: 0.999057
alpha0 max: 1 min: 0.999057
diagonal:  Solving for alpha.Phase1, Initial residual = 0, Final residual = 0, No Iterations 0
Phase Change 

diagonal:  Solving for alpha.Phase2, Initial residual = 0, Final residual = 0, No Iterations 0
diagonal:  Solving for alpha.Phase3, Initial residual = 0, Final residual = 0, No Iterations 0
2
alphaEqn Complete

 alpha2 Weighted Fraction: 0
gtawIncompressibleThreePhaseMixture Correct Called nu
nu Complete
mixture Complete
subCycle Complete
Marg Off
UEqn.H
UEqn
DILUPBiCG:  Solving for Ux, Initial residual = 2.19246e-09, Final residual = 4.44656e-25, No Iterations 1
DILUPBiCG:  Solving for Uz, Initial residual = 1.49418e-09, Final residual = 2.32461e-24, No Iterations 1
UEqn End
GAMG:  Solving for p_rgh, Initial residual = 0.817933, Final residual = 0.285945, No Iterations 10
GAMG:  Solving for p_rgh, Initial residual = 0.288039, Final residual = 0.291957, No Iterations 10
time step continuity errors : sum local = 6.54862e-12, global = 1.32179e-12, cumulative = 1.05828e-11
GAMG:  Solving for p_rgh, Initial residual = 0.291986, Final residual = 0.292652, No Iterations 10
GAMG:  Solving for p_rgh, Initial residual = 0.292906, Final residual = 0.290325, No Iterations 10
time step continuity errors : sum local = 6.21631e-12, global = 1.38575e-12, cumulative = 1.19685e-11
GAMG:  Solving for p_rgh, Initial residual = 0.293383, Final residual = 0.293405, No Iterations 10
GAMGPCG:  Solving for p_rgh, Initial residual = 0.286769, Final residual = 4.6143e-09, No Iterations 5
time step continuity errors : sum local = 6.85601e-12, global = 1.27204e-12, cumulative = 1.32406e-11

 TEqn Disperse 


 New alphaf terms

 New kf terms
Applying sauce
 Q_arc 
 Generating Heat Source Field 
heatSourceField max: 1 min: 0
 delHField 
source0 max: 1 min: 2.34419e-105

 Latent heat 

 Reached point X

 TEqn End 

smoothSolver:  Solving for T, Initial residual = 0.0276966, Final residual = 9.87551e-05, No Iterations 389

 TEqn Solved 

interfaceCells 198 weldCells 0 percentage 0
ExecutionTime = 3.54 s  ClockTime = 3 s

Courant Number mean: 1.34233e-11 max: 4.52123e-10
Interface Courant Number mean: 0 max: 0
deltaT = 0.00863822
Time = 0.1

 Generating Heat Alpha Field 
heatAlphaField max: 1 min: 0.999057
alpha0 max: 1 min: 0.999057
diagonal:  Solving for alpha.Phase1, Initial residual = 0, Final residual = 0, No Iterations 0
Phase Change 

diagonal:  Solving for alpha.Phase2, Initial residual = 0, Final residual = 0, No Iterations 0
diagonal:  Solving for alpha.Phase3, Initial residual = 0, Final residual = 0, No Iterations 0
2
alphaEqn Complete

 alpha2 Weighted Fraction: 0
gtawIncompressibleThreePhaseMixture Correct Called nu
nu Complete
mixture Complete
subCycle Complete
Marg Off
UEqn.H
UEqn
DILUPBiCG:  Solving for Ux, Initial residual = 3.26005e-09, Final residual = 2.18544e-24, No Iterations 1
DILUPBiCG:  Solving for Uz, Initial residual = 4.84061e-10, Final residual = 6.47258e-25, No Iterations 1
UEqn End
GAMG:  Solving for p_rgh, Initial residual = 0.812307, Final residual = 0.270928, No Iterations 10
GAMG:  Solving for p_rgh, Initial residual = 0.269312, Final residual = 0.257235, No Iterations 10
time step continuity errors : sum local = 6.32701e-12, global = 1.3289e-12, cumulative = 1.45695e-11
GAMG:  Solving for p_rgh, Initial residual = 0.259601, Final residual = 0.260842, No Iterations 10
GAMG:  Solving for p_rgh, Initial residual = 0.260864, Final residual = 0.261723, No Iterations 10
time step continuity errors : sum local = 6.23024e-12, global = 1.36443e-12, cumulative = 1.59339e-11
GAMG:  Solving for p_rgh, Initial residual = 0.265919, Final residual = 0.271718, No Iterations 10
GAMGPCG:  Solving for p_rgh, Initial residual = 0.266543, Final residual = 3.39609e-09, No Iterations 5
time step continuity errors : sum local = 6.80525e-12, global = 1.1228e-12, cumulative = 1.70567e-11

 TEqn Disperse 


 New alphaf terms

 New kf terms
Applying sauce
 Q_arc 
 Generating Heat Source Field 
heatSourceField max: 1 min: 0
 delHField 
source0 max: 1 min: 2.34419e-105

 Latent heat 

 Reached point X

 TEqn End 

smoothSolver:  Solving for T, Initial residual = 0.0270245, Final residual = 9.91886e-05, No Iterations 387

 TEqn Solved 

interfaceCells 198 weldCells 0 percentage 0
ExecutionTime = 3.95 s  ClockTime = 4 s

Courant Number mean: 1.78002e-11 max: 4.64782e-10
Interface Courant Number mean: 0 max: 0
deltaT = 0.01
Time = 0.11

 Generating Heat Alpha Field 
heatAlphaField max: 1 min: 0.999057
alpha0 max: 1 min: 0.999057
diagonal:  Solving for alpha.Phase1, Initial residual = 0, Final residual = 0, No Iterations 0
Phase Change 

diagonal:  Solving for alpha.Phase2, Initial residual = 0, Final residual = 0, No Iterations 0
diagonal:  Solving for alpha.Phase3, Initial residual = 0, Final residual = 0, No Iterations 0
2
alphaEqn Complete

 alpha2 Weighted Fraction: 0
gtawIncompressibleThreePhaseMixture Correct Called nu
nu Complete
mixture Complete
subCycle Complete
Marg Off
UEqn.H
UEqn
DILUPBiCG:  Solving for Ux, Initial residual = 2.87708e-09, Final residual = 1.24445e-24, No Iterations 1
DILUPBiCG:  Solving for Uz, Initial residual = 4.50424e-10, Final residual = 1.24719e-24, No Iterations 1
UEqn End
GAMG:  Solving for p_rgh, Initial residual = 0.873837, Final residual = 0.266661, No Iterations 10
GAMG:  Solving for p_rgh, Initial residual = 0.295513, Final residual = 0.272056, No Iterations 10
time step continuity errors : sum local = 8.95764e-12, global = 3.61973e-13, cumulative = 1.74187e-11
GAMG:  Solving for p_rgh, Initial residual = 0.276064, Final residual = 0.291289, No Iterations 10
GAMG:  Solving for p_rgh, Initial residual = 0.287568, Final residual = 0.286229, No Iterations 10
time step continuity errors : sum local = 8.91117e-12, global = 2.13888e-13, cumulative = 1.76325e-11
GAMG:  Solving for p_rgh, Initial residual = 0.28542, Final residual = 0.296468, No Iterations 10
GAMGPCG:  Solving for p_rgh, Initial residual = 0.293546, Final residual = 9.62868e-08, No Iterations 4
time step continuity errors : sum local = 9.96045e-12, global = 7.0749e-13, cumulative = 1.834e-11

 TEqn Disperse 


 New alphaf terms

 New kf terms
Applying sauce
 Q_arc 
 Generating Heat Source Field 
heatSourceField max: 1 min: 0
 delHField 
source0 max: 1 min: 2.34419e-105

 Latent heat 

 Reached point X

 TEqn End 

smoothSolver:  Solving for T, Initial residual = 0.0303449, Final residual = 9.91682e-05, No Iterations 457

 TEqn Solved 

interfaceCells 198 weldCells 0 percentage 0
ExecutionTime = 4.18 s  ClockTime = 4 s

Courant Number mean: 1.66305e-11 max: 4.30655e-10
Interface Courant Number mean: 0 max: 0
deltaT = 0.01125
Time = 0.12125

 Generating Heat Alpha Field 
heatAlphaField max: 1 min: 0.999057
alpha0 max: 1 min: 0.999057
diagonal:  Solving for alpha.Phase1, Initial residual = 0, Final residual = 0, No Iterations 0
Phase Change 

diagonal:  Solving for alpha.Phase2, Initial residual = 0, Final residual = 0, No Iterations 0
diagonal:  Solving for alpha.Phase3, Initial residual = 0, Final residual = 0, No Iterations 0
2
alphaEqn Complete

 alpha2 Weighted Fraction: 0
gtawIncompressibleThreePhaseMixture Correct Called nu
nu Complete
mixture Complete
subCycle Complete
Marg Off
UEqn.H
UEqn
DILUPBiCG:  Solving for Ux, Initial residual = 3.74784e-09, Final residual = 1.64177e-24, No Iterations 1
DILUPBiCG:  Solving for Uz, Initial residual = 2.2146e-10, Final residual = 4.67763e-26, No Iterations 1
UEqn End
GAMG:  Solving for p_rgh, Initial residual = 0.85259, Final residual = 0.238516, No Iterations 10
GAMG:  Solving for p_rgh, Initial residual = 0.263664, Final residual = 0.272581, No Iterations 10
time step continuity errors : sum local = 1.02281e-11, global = 9.0698e-13, cumulative = 1.9247e-11
GAMG:  Solving for p_rgh, Initial residual = 0.268854, Final residual = 0.263238, No Iterations 10
GAMG:  Solving for p_rgh, Initial residual = 0.263982, Final residual = 0.257273, No Iterations 10
time step continuity errors : sum local = 1.03999e-11, global = 8.32935e-13, cumulative = 2.00799e-11
GAMG:  Solving for p_rgh, Initial residual = 0.257654, Final residual = 0.27493, No Iterations 10
GAMGPCG:  Solving for p_rgh, Initial residual = 0.269376, Final residual = 8.35385e-09, No Iterations 5
time step continuity errors : sum local = 1.12118e-11, global = 4.44227e-13, cumulative = 2.05242e-11

 TEqn Disperse 


 New alphaf terms

 New kf terms
Applying sauce
 Q_arc 
 Generating Heat Source Field 
heatSourceField max: 1 min: 0
 delHField 
source0 max: 1 min: 2.34419e-105

 Latent heat 

 Reached point X

 TEqn End 

smoothSolver:  Solving for T, Initial residual = 0.0330774, Final residual = 9.98682e-05, No Iterations 521

 TEqn Solved 

interfaceCells 198 weldCells 0 percentage 0
ExecutionTime = 4.4 s  ClockTime = 4 s

Courant Number mean: 1.54729e-11 max: 5.08347e-10
Interface Courant Number mean: 0 max: 0
deltaT = 0.013125
Time = 0.134375

 Generating Heat Alpha Field 
heatAlphaField max: 1 min: 0.999057
alpha0 max: 1 min: 0.999057
diagonal:  Solving for alpha.Phase1, Initial residual = 0, Final residual = 0, No Iterations 0
Phase Change 

diagonal:  Solving for alpha.Phase2, Initial residual = 0, Final residual = 0, No Iterations 0
diagonal:  Solving for alpha.Phase3, Initial residual = 0, Final residual = 0, No Iterations 0
2
alphaEqn Complete

 alpha2 Weighted Fraction: 0
gtawIncompressibleThreePhaseMixture Correct Called nu
nu Complete
mixture Complete
subCycle Complete
Marg Off
UEqn.H
UEqn
DILUPBiCG:  Solving for Ux, Initial residual = 1.61987e-09, Final residual = 1.10065e-24, No Iterations 1
DILUPBiCG:  Solving for Uz, Initial residual = 2.67502e-10, Final residual = 3.573e-25, No Iterations 1
UEqn End
GAMG:  Solving for p_rgh, Initial residual = 0.829765, Final residual = 0.260816, No Iterations 10
GAMG:  Solving for p_rgh, Initial residual = 0.299078, Final residual = 0.306776, No Iterations 10
time step continuity errors : sum local = 1.23749e-11, global = -9.07027e-13, cumulative = 1.96171e-11
GAMG:  Solving for p_rgh, Initial residual = 0.306204, Final residual = 0.306934, No Iterations 10
GAMG:  Solving for p_rgh, Initial residual = 0.307457, Final residual = 0.304338, No Iterations 10
time step continuity errors : sum local = 1.20351e-11, global = -9.71812e-13, cumulative = 1.86453e-11
GAMG:  Solving for p_rgh, Initial residual = 0.301339, Final residual = 0.283335, No Iterations 10
GAMGPCG:  Solving for p_rgh, Initial residual = 0.289128, Final residual = 8.19807e-09, No Iterations 5
time step continuity errors : sum local = 1.3249e-11, global = -1.46853e-12, cumulative = 1.71768e-11

 TEqn Disperse 


 New alphaf terms

 New kf terms
Applying sauce
 Q_arc 
 Generating Heat Source Field 
heatSourceField max: 1 min: 0
 delHField 
source0 max: 1 min: 2.34419e-105

 Latent heat 

 Reached point X

 TEqn End 

smoothSolver:  Solving for T, Initial residual = 0.0372373, Final residual = 9.97761e-05, No Iterations 620

 TEqn Solved 

interfaceCells 198 weldCells 0 percentage 0
ExecutionTime = 4.64 s  ClockTime = 4 s

Courant Number mean: 1.99718e-11 max: 4.47683e-10
Interface Courant Number mean: 0 max: 0
deltaT = 0.013125
Time = 0.1475

 Generating Heat Alpha Field 
heatAlphaField max: 1 min: 0.999057
alpha0 max: 1 min: 0.999057
diagonal:  Solving for alpha.Phase1, Initial residual = 0, Final residual = 0, No Iterations 0
Phase Change 

diagonal:  Solving for alpha.Phase2, Initial residual = 0, Final residual = 0, No Iterations 0
diagonal:  Solving for alpha.Phase3, Initial residual = 0, Final residual = 0, No Iterations 0
2
alphaEqn Complete

 alpha2 Weighted Fraction: 0
gtawIncompressibleThreePhaseMixture Correct Called nu
nu Complete
mixture Complete
subCycle Complete
Marg Off
UEqn.H
UEqn
DILUPBiCG:  Solving for Ux, Initial residual = 6.62914e-09, Final residual = 1.32914e-23, No Iterations 1
DILUPBiCG:  Solving for Uz, Initial residual = 7.56889e-10, Final residual = 1.35567e-24, No Iterations 1
UEqn End
GAMG:  Solving for p_rgh, Initial residual = 0.846806, Final residual = 0.345584, No Iterations 10
GAMG:  Solving for p_rgh, Initial residual = 0.343404, Final residual = 0.3402, No Iterations 10
time step continuity errors : sum local = 1.26133e-11, global = -7.55858e-13, cumulative = 1.64209e-11
GAMG:  Solving for p_rgh, Initial residual = 0.343283, Final residual = 0.348793, No Iterations 10
GAMG:  Solving for p_rgh, Initial residual = 0.345432, Final residual = 0.349392, No Iterations 10
time step continuity errors : sum local = 1.2583e-11, global = -7.99046e-13, cumulative = 1.56219e-11
GAMG:  Solving for p_rgh, Initial residual = 0.351293, Final residual = 0.349687, No Iterations 10
GAMGPCG:  Solving for p_rgh, Initial residual = 0.352515, Final residual = 1.13112e-08, No Iterations 5
time step continuity errors : sum local = 1.49682e-11, global = -2.26755e-12, cumulative = 1.33544e-11

 TEqn Disperse 


 New alphaf terms

 New kf terms
Applying sauce
 Q_arc 
 Generating Heat Source Field 
heatSourceField max: 1 min: 0
 delHField 
source0 max: 1 min: 2.34419e-105

 Latent heat 

 Reached point X

 TEqn End 

smoothSolver:  Solving for T, Initial residual = 0.0362227, Final residual = 9.98735e-05, No Iterations 617

 TEqn Solved 

interfaceCells 198 weldCells 0 percentage 0
ExecutionTime = 4.88 s  ClockTime = 5 s

Courant Number mean: 2.53709e-11 max: 8.12105e-10
Interface Courant Number mean: 0 max: 0
deltaT = 0.013125
Time = 0.160625

 Generating Heat Alpha Field 
heatAlphaField max: 1 min: 0.999057
alpha0 max: 1 min: 0.999057
diagonal:  Solving for alpha.Phase1, Initial residual = 0, Final residual = 0, No Iterations 0
Phase Change 

diagonal:  Solving for alpha.Phase2, Initial residual = 0, Final residual = 0, No Iterations 0
diagonal:  Solving for alpha.Phase3, Initial residual = 0, Final residual = 0, No Iterations 0
2
alphaEqn Complete

 alpha2 Weighted Fraction: 0
gtawIncompressibleThreePhaseMixture Correct Called nu
nu Complete
mixture Complete
subCycle Complete
Marg Off
UEqn.H
UEqn
DILUPBiCG:  Solving for Ux, Initial residual = 1.45749e-09, Final residual = 1.61988e-24, No Iterations 1
DILUPBiCG:  Solving for Uz, Initial residual = 4.83976e-10, Final residual = 1.04127e-25, No Iterations 1
UEqn End
GAMG:  Solving for p_rgh, Initial residual = 0.844261, Final residual = 0.309347, No Iterations 10
GAMG:  Solving for p_rgh, Initial residual = 0.299561, Final residual = 0.297445, No Iterations 10
time step continuity errors : sum local = 1.28074e-11, global = -8.20648e-13, cumulative = 1.25337e-11
GAMG:  Solving for p_rgh, Initial residual = 0.29566, Final residual = 0.286946, No Iterations 10
GAMG:  Solving for p_rgh, Initial residual = 0.289771, Final residual = 0.301254, No Iterations 10
time step continuity errors : sum local = 1.28952e-11, global = -6.47882e-13, cumulative = 1.18858e-11
GAMG:  Solving for p_rgh, Initial residual = 0.306223, Final residual = 0.306397, No Iterations 10
GAMGPCG:  Solving for p_rgh, Initial residual = 0.300118, Final residual = 1.2794e-08, No Iterations 5
time step continuity errors : sum local = 1.42818e-11, global = -2.35393e-12, cumulative = 9.53189e-12

 TEqn Disperse 


 New alphaf terms

 New kf terms
Applying sauce
 Q_arc 
 Generating Heat Source Field 
heatSourceField max: 1 min: 0
 delHField 
source0 max: 1 min: 2.34419e-105

 Latent heat 

 Reached point X

 TEqn End 

smoothSolver:  Solving for T, Initial residual = 0.0353126, Final residual = 9.92366e-05, No Iterations 615

 TEqn Solved 

interfaceCells 198 weldCells 0 percentage 0
ExecutionTime = 5.12 s  ClockTime = 5 s

Courant Number mean: 2.32882e-11 max: 6.57985e-10
Interface Courant Number mean: 0 max: 0
deltaT = 0.013125
Time = 0.17375

 Generating Heat Alpha Field 
heatAlphaField max: 1 min: 0.999057
alpha0 max: 1 min: 0.999057
diagonal:  Solving for alpha.Phase1, Initial residual = 0, Final residual = 0, No Iterations 0
Phase Change 

diagonal:  Solving for alpha.Phase2, Initial residual = 0, Final residual = 0, No Iterations 0
diagonal:  Solving for alpha.Phase3, Initial residual = 0, Final residual = 0, No Iterations 0
2
alphaEqn Complete

 alpha2 Weighted Fraction: 0
gtawIncompressibleThreePhaseMixture Correct Called nu
nu Complete
mixture Complete
subCycle Complete
Marg Off
UEqn.H
UEqn
DILUPBiCG:  Solving for Ux, Initial residual = 1.22841e-09, Final residual = 2.77219e-25, No Iterations 1
DILUPBiCG:  Solving for Uz, Initial residual = 3.03953e-10, Final residual = 5.14747e-26, No Iterations 1
UEqn End
GAMG:  Solving for p_rgh, Initial residual = 0.812128, Final residual = 0.30669, No Iterations 10
GAMG:  Solving for p_rgh, Initial residual = 0.319696, Final residual = 0.313549, No Iterations 10
time step continuity errors : sum local = 1.25366e-11, global = -4.96714e-13, cumulative = 9.03518e-12
GAMG:  Solving for p_rgh, Initial residual = 0.315968, Final residual = 0.297118, No Iterations 10
GAMG:  Solving for p_rgh, Initial residual = 0.301274, Final residual = 0.304004, No Iterations 10
time step continuity errors : sum local = 1.27826e-11, global = -1.51184e-13, cumulative = 8.884e-12
GAMG:  Solving for p_rgh, Initial residual = 0.30553, Final residual = 0.31382, No Iterations 10
GAMGPCG:  Solving for p_rgh, Initial residual = 0.310477, Final residual = 6.30829e-09, No Iterations 5
time step continuity errors : sum local = 1.46669e-11, global = -1.05821e-12, cumulative = 7.82579e-12

 TEqn Disperse 


 New alphaf terms

 New kf terms
Applying sauce
 Q_arc 
 Generating Heat Source Field 
heatSourceField max: 1 min: 0
 delHField 
source0 max: 1 min: 2.34419e-105

 Latent heat 

 Reached point X

 TEqn End 

smoothSolver:  Solving for T, Initial residual = 0.0344924, Final residual = 9.97443e-05, No Iterations 612

 TEqn Solved 

interfaceCells 198 weldCells 0 percentage 0
ExecutionTime = 5.36 s  ClockTime = 5 s

Courant Number mean: 2.21648e-11 max: 5.95476e-10
Interface Courant Number mean: 0 max: 0
deltaT = 0.013125
Time = 0.186875

 Generating Heat Alpha Field 
heatAlphaField max: 1 min: 0.999057
alpha0 max: 1 min: 0.999057
diagonal:  Solving for alpha.Phase1, Initial residual = 0, Final residual = 0, No Iterations 0
Phase Change 

diagonal:  Solving for alpha.Phase2, Initial residual = 0, Final residual = 0, No Iterations 0
diagonal:  Solving for alpha.Phase3, Initial residual = 0, Final residual = 0, No Iterations 0
2
alphaEqn Complete

 alpha2 Weighted Fraction: 0
gtawIncompressibleThreePhaseMixture Correct Called nu
nu Complete
mixture Complete
subCycle Complete
Marg Off
UEqn.H
UEqn
DILUPBiCG:  Solving for Ux, Initial residual = 5.00563e-09, Final residual = 4.18947e-25, No Iterations 1
DILUPBiCG:  Solving for Uz, Initial residual = 1.05577e-09, Final residual = 6.8107e-25, No Iterations 1
UEqn End
GAMG:  Solving for p_rgh, Initial residual = 0.825953, Final residual = 0.296482, No Iterations 10
GAMG:  Solving for p_rgh, Initial residual = 0.304215, Final residual = 0.322355, No Iterations 10
time step continuity errors : sum local = 1.26381e-11, global = 2.59128e-13, cumulative = 8.08491e-12
GAMG:  Solving for p_rgh, Initial residual = 0.316425, Final residual = 0.307929, No Iterations 10
GAMG:  Solving for p_rgh, Initial residual = 0.31159, Final residual = 0.313706, No Iterations 10
time step continuity errors : sum local = 1.24186e-11, global = -1.9438e-13, cumulative = 7.89053e-12
GAMG:  Solving for p_rgh, Initial residual = 0.309661, Final residual = 0.304046, No Iterations 10
GAMGPCG:  Solving for p_rgh, Initial residual = 0.306825, Final residual = 1.04026e-08, No Iterations 5
time step continuity errors : sum local = 1.46984e-11, global = -1.36055e-12, cumulative = 6.52999e-12

 TEqn Disperse 


 New alphaf terms

 New kf terms
Applying sauce
 Q_arc 
 Generating Heat Source Field 
heatSourceField max: 1 min: 0
 delHField 
source0 max: 1 min: 2.34419e-105

 Latent heat 

 Reached point X

 TEqn End 

smoothSolver:  Solving for T, Initial residual = 0.0337509, Final residual = 9.94775e-05, No Iterations 610

 TEqn Solved 

interfaceCells 198 weldCells 0 percentage 0
ExecutionTime = 5.6 s  ClockTime = 5 s

Courant Number mean: 2.18647e-11 max: 4.89439e-10
Interface Courant Number mean: 0 max: 0
deltaT = 0.013125
Time = 0.2

 Generating Heat Alpha Field 
heatAlphaField max: 1 min: 0.999057
alpha0 max: 1 min: 0.999057
diagonal:  Solving for alpha.Phase1, Initial residual = 0, Final residual = 0, No Iterations 0
Phase Change 

diagonal:  Solving for alpha.Phase2, Initial residual = 0, Final residual = 0, No Iterations 0
diagonal:  Solving for alpha.Phase3, Initial residual = 0, Final residual = 0, No Iterations 0
2
alphaEqn Complete

 alpha2 Weighted Fraction: 0
gtawIncompressibleThreePhaseMixture Correct Called nu
nu Complete
mixture Complete
subCycle Complete
Marg Off
UEqn.H
UEqn
DILUPBiCG:  Solving for Ux, Initial residual = 7.7864e-09, Final residual = 3.4408e-24, No Iterations 1
DILUPBiCG:  Solving for Uz, Initial residual = 3.90586e-10, Final residual = 4.78153e-25, No Iterations 1
UEqn End
GAMG:  Solving for p_rgh, Initial residual = 0.834783, Final residual = 0.298061, No Iterations 10
GAMG:  Solving for p_rgh, Initial residual = 0.302885, Final residual = 0.308627, No Iterations 10
time step continuity errors : sum local = 1.24127e-11, global = -9.07028e-13, cumulative = 5.62296e-12
GAMG:  Solving for p_rgh, Initial residual = 0.309253, Final residual = 0.297903, No Iterations 10
GAMG:  Solving for p_rgh, Initial residual = 0.299247, Final residual = 0.312846, No Iterations 10
time step continuity errors : sum local = 1.30524e-11, global = -1.015e-12, cumulative = 4.60796e-12
GAMG:  Solving for p_rgh, Initial residual = 0.308083, Final residual = 0.293855, No Iterations 10
GAMGPCG:  Solving for p_rgh, Initial residual = 0.298398, Final residual = 7.50362e-09, No Iterations 5
time step continuity errors : sum local = 1.43904e-11, global = -2.5051e-12, cumulative = 2.10286e-12

 TEqn Disperse 


 New alphaf terms

 New kf terms
Applying sauce
 Q_arc 
 Generating Heat Source Field 
heatSourceField max: 1 min: 0
 delHField 
source0 max: 1 min: 2.34419e-105

 Latent heat 

 Reached point X

 TEqn End 

smoothSolver:  Solving for T, Initial residual = 0.0330767, Final residual = 9.93655e-05, No Iterations 608

 TEqn Solved 

interfaceCells 198 weldCells 0 percentage 0
ExecutionTime = 6.05 s  ClockTime = 6 s

Courant Number mean: 2.30367e-11 max: 5.56503e-10
Interface Courant Number mean: 0 max: 0
deltaT = 0.0142857
Time = 0.214286

 Generating Heat Alpha Field 
heatAlphaField max: 1 min: 0.999057
alpha0 max: 1 min: 0.999057
diagonal:  Solving for alpha.Phase1, Initial residual = 0, Final residual = 0, No Iterations 0
Phase Change 

diagonal:  Solving for alpha.Phase2, Initial residual = 0, Final residual = 0, No Iterations 0
diagonal:  Solving for alpha.Phase3, Initial residual = 0, Final residual = 0, No Iterations 0
2
alphaEqn Complete

 alpha2 Weighted Fraction: 0
gtawIncompressibleThreePhaseMixture Correct Called nu
nu Complete
mixture Complete
subCycle Complete
Marg Off
UEqn.H
UEqn
DILUPBiCG:  Solving for Ux, Initial residual = 5.95004e-09, Final residual = 2.58485e-24, No Iterations 1
DILUPBiCG:  Solving for Uz, Initial residual = 2.61171e-10, Final residual = 1.68628e-25, No Iterations 1
UEqn End
GAMG:  Solving for p_rgh, Initial residual = 0.811348, Final residual = 0.289353, No Iterations 10
GAMG:  Solving for p_rgh, Initial residual = 0.318652, Final residual = 0.315197, No Iterations 10
time step continuity errors : sum local = 1.49309e-11, global = -1.1755e-13, cumulative = 1.98531e-12
GAMG:  Solving for p_rgh, Initial residual = 0.313745, Final residual = 0.302972, No Iterations 10
GAMG:  Solving for p_rgh, Initial residual = 0.300615, Final residual = 0.30403, No Iterations 10
time step continuity errors : sum local = 1.46729e-11, global = -1.1755e-13, cumulative = 1.86776e-12
GAMG:  Solving for p_rgh, Initial residual = 0.318004, Final residual = 0.325542, No Iterations 10
GAMGPCG:  Solving for p_rgh, Initial residual = 0.315979, Final residual = 9.59661e-09, No Iterations 5
time step continuity errors : sum local = 1.67289e-11, global = 4.46555e-13, cumulative = 2.31431e-12

 TEqn Disperse 


 New alphaf terms

 New kf terms
Applying sauce
 Q_arc 
 Generating Heat Source Field 
heatSourceField max: 1 min: 0
 delHField 
source0 max: 1 min: 2.34419e-105

 Latent heat 

 Reached point X

 TEqn End 

smoothSolver:  Solving for T, Initial residual = 0.0351411, Final residual = 9.97813e-05, No Iterations 668

 TEqn Solved 

interfaceCells 198 weldCells 0 percentage 0
ExecutionTime = 6.3 s  ClockTime = 6 s

Courant Number mean: 1.84675e-11 max: 4.39812e-10
Interface Courant Number mean: 0 max: 0
deltaT = 0.0171429
Time = 0.231429

 Generating Heat Alpha Field 
heatAlphaField max: 1 min: 0.999057
alpha0 max: 1 min: 0.999057
diagonal:  Solving for alpha.Phase1, Initial residual = 0, Final residual = 0, No Iterations 0
Phase Change 

diagonal:  Solving for alpha.Phase2, Initial residual = 0, Final residual = 0, No Iterations 0
diagonal:  Solving for alpha.Phase3, Initial residual = 0, Final residual = 0, No Iterations 0
2
alphaEqn Complete

 alpha2 Weighted Fraction: 0
gtawIncompressibleThreePhaseMixture Correct Called nu
nu Complete
mixture Complete
subCycle Complete
Marg Off
UEqn.H
UEqn
DILUPBiCG:  Solving for Ux, Initial residual = 1.6553e-09, Final residual = 1.09321e-24, No Iterations 1
DILUPBiCG:  Solving for Uz, Initial residual = 8.24825e-09, Final residual = 1.42308e-24, No Iterations 1
UEqn End
GAMG:  Solving for p_rgh, Initial residual = 0.839839, Final residual = 0.304119, No Iterations 10
GAMG:  Solving for p_rgh, Initial residual = 0.32217, Final residual = 0.325565, No Iterations 10
time step continuity errors : sum local = 1.84507e-11, global = 7.61528e-13, cumulative = 3.07584e-12
GAMG:  Solving for p_rgh, Initial residual = 0.33157, Final residual = 0.326487, No Iterations 10
GAMG:  Solving for p_rgh, Initial residual = 0.326704, Final residual = 0.331609, No Iterations 10
time step continuity errors : sum local = 1.91968e-11, global = 7.89732e-13, cumulative = 3.86557e-12
GAMG:  Solving for p_rgh, Initial residual = 0.336657, Final residual = 0.343902, No Iterations 10
GAMGPCG:  Solving for p_rgh, Initial residual = 0.33888, Final residual = 1.15368e-08, No Iterations 5
time step continuity errors : sum local = 2.18753e-11, global = -1.12899e-13, cumulative = 3.75267e-12

 TEqn Disperse 


 New alphaf terms

 New kf terms
Applying sauce
 Q_arc 
 Generating Heat Source Field 
heatSourceField max: 1 min: 0
 delHField 
source0 max: 1 min: 2.34419e-105

 Latent heat 

 Reached point X

 TEqn End 

smoothSolver:  Solving for T, Initial residual = 0.0408375, Final residual = 9.95369e-05, No Iterations 822

 TEqn Solved 

interfaceCells 198 weldCells 0 percentage 0
ExecutionTime = 6.57 s  ClockTime = 6 s

Courant Number mean: 2.76484e-11 max: 6.68686e-10
Interface Courant Number mean: 0 max: 0
deltaT = 0.0171429
Time = 0.248571

 Generating Heat Alpha Field 
heatAlphaField max: 1 min: 0.999057
alpha0 max: 1 min: 0.999057
diagonal:  Solving for alpha.Phase1, Initial residual = 0, Final residual = 0, No Iterations 0
Phase Change 

diagonal:  Solving for alpha.Phase2, Initial residual = 0, Final residual = 0, No Iterations 0
diagonal:  Solving for alpha.Phase3, Initial residual = 0, Final residual = 0, No Iterations 0
2
alphaEqn Complete

 alpha2 Weighted Fraction: 0
gtawIncompressibleThreePhaseMixture Correct Called nu
nu Complete
mixture Complete
subCycle Complete
Marg Off
UEqn.H
UEqn
DILUPBiCG:  Solving for Ux, Initial residual = 7.02955e-10, Final residual = 3.05746e-25, No Iterations 1
DILUPBiCG:  Solving for Uz, Initial residual = 3.64543e-10, Final residual = 4.09881e-25, No Iterations 1
UEqn End
GAMG:  Solving for p_rgh, Initial residual = 0.845602, Final residual = 0.32397, No Iterations 10
GAMG:  Solving for p_rgh, Initial residual = 0.328929, Final residual = 0.347022, No Iterations 10
time step continuity errors : sum local = 1.87783e-11, global = 1.12782e-13, cumulative = 3.86545e-12
GAMG:  Solving for p_rgh, Initial residual = 0.340594, Final residual = 0.324484, No Iterations 10
GAMG:  Solving for p_rgh, Initial residual = 0.33238, Final residual = 0.328763, No Iterations 10
time step continuity errors : sum local = 1.82997e-11, global = -1.41072e-13, cumulative = 3.72438e-12
GAMG:  Solving for p_rgh, Initial residual = 0.334659, Final residual = 0.33175, No Iterations 10
GAMGPCG:  Solving for p_rgh, Initial residual = 0.326389, Final residual = 7.24195e-09, No Iterations 5
time step continuity errors : sum local = 2.20258e-11, global = -6.77024e-13, cumulative = 3.04736e-12

 TEqn Disperse 


 New alphaf terms

 New kf terms
Applying sauce
 Q_arc 
 Generating Heat Source Field 
heatSourceField max: 1 min: 0
 delHField 
source0 max: 1 min: 2.34419e-105

 Latent heat 

 Reached point X

 TEqn End 

smoothSolver:  Solving for T, Initial residual = 0.0400105, Final residual = 9.96788e-05, No Iterations 819

 TEqn Solved 

interfaceCells 198 weldCells 0 percentage 0
ExecutionTime = 6.85 s  ClockTime = 7 s

Courant Number mean: 3.06639e-11 max: 7.88838e-10
Interface Courant Number mean: 0 max: 0
deltaT = 0.0171429
Time = 0.265714

 Generating Heat Alpha Field 
heatAlphaField max: 1 min: 0.999057
alpha0 max: 1 min: 0.999057
diagonal:  Solving for alpha.Phase1, Initial residual = 0, Final residual = 0, No Iterations 0
Phase Change 

diagonal:  Solving for alpha.Phase2, Initial residual = 0, Final residual = 0, No Iterations 0
diagonal:  Solving for alpha.Phase3, Initial residual = 0, Final residual = 0, No Iterations 0
2
alphaEqn Complete

 alpha2 Weighted Fraction: 0
gtawIncompressibleThreePhaseMixture Correct Called nu
nu Complete
mixture Complete
subCycle Complete
Marg Off
UEqn.H
UEqn
DILUPBiCG:  Solving for Ux, Initial residual = 6.43641e-10, Final residual = 5.7393e-25, No Iterations 1
DILUPBiCG:  Solving for Uz, Initial residual = 3.9146e-10, Final residual = 1.38218e-25, No Iterations 1
UEqn End
GAMG:  Solving for p_rgh, Initial residual = 0.838189, Final residual = 0.299031, No Iterations 10
GAMG:  Solving for p_rgh, Initial residual = 0.308902, Final residual = 0.323122, No Iterations 10
time step continuity errors : sum local = 1.81207e-11, global = 1.97404e-13, cumulative = 3.24476e-12
GAMG:  Solving for p_rgh, Initial residual = 0.314945, Final residual = 0.317642, No Iterations 10
GAMG:  Solving for p_rgh, Initial residual = 0.316316, Final residual = 0.308576, No Iterations 10
time step continuity errors : sum local = 1.91242e-11, global = 8.45825e-14, cumulative = 3.32935e-12
GAMG:  Solving for p_rgh, Initial residual = 0.306004, Final residual = 0.321863, No Iterations 10
GAMGPCG:  Solving for p_rgh, Initial residual = 0.321727, Final residual = 7.04116e-09, No Iterations 5
time step continuity errors : sum local = 2.0981e-11, global = -1.26936e-12, cumulative = 2.05999e-12

 TEqn Disperse 


 New alphaf terms

 New kf terms
Applying sauce
 Q_arc 
 Generating Heat Source Field 
heatSourceField max: 1 min: 0
 delHField 
source0 max: 1 min: 2.34419e-105

 Latent heat 

 Reached point X

 TEqn End 

smoothSolver:  Solving for T, Initial residual = 0.0392717, Final residual = 9.92734e-05, No Iterations 817

 TEqn Solved 

interfaceCells 198 weldCells 0 percentage 0
ExecutionTime = 7.12 s  ClockTime = 7 s

Courant Number mean: 2.72389e-11 max: 5.98115e-10
Interface Courant Number mean: 0 max: 0
deltaT = 0.0171429
Time = 0.282857

 Generating Heat Alpha Field 
heatAlphaField max: 1 min: 0.999057
alpha0 max: 1 min: 0.999057
diagonal:  Solving for alpha.Phase1, Initial residual = 0, Final residual = 0, No Iterations 0
Phase Change 

diagonal:  Solving for alpha.Phase2, Initial residual = 0, Final residual = 0, No Iterations 0
diagonal:  Solving for alpha.Phase3, Initial residual = 0, Final residual = 0, No Iterations 0
2
alphaEqn Complete

 alpha2 Weighted Fraction: 0
gtawIncompressibleThreePhaseMixture Correct Called nu
nu Complete
mixture Complete
subCycle Complete
Marg Off
UEqn.H
UEqn
DILUPBiCG:  Solving for Ux, Initial residual = 6.98034e-09, Final residual = 2.52101e-24, No Iterations 1
DILUPBiCG:  Solving for Uz, Initial residual = 2.34034e-10, Final residual = 2.12309e-25, No Iterations 1
UEqn End
GAMG:  Solving for p_rgh, Initial residual = 0.837758, Final residual = 0.343848, No Iterations 10
GAMG:  Solving for p_rgh, Initial residual = 0.351999, Final residual = 0.335071, No Iterations 10
time step continuity errors : sum local = 1.96848e-11, global = 4.51258e-13, cumulative = 2.51125e-12
GAMG:  Solving for p_rgh, Initial residual = 0.338533, Final residual = 0.329559, No Iterations 10
GAMG:  Solving for p_rgh, Initial residual = 0.329476, Final residual = 0.331487, No Iterations 10
time step continuity errors : sum local = 1.87128e-11, global = 9.30764e-13, cumulative = 3.44201e-12
GAMG:  Solving for p_rgh, Initial residual = 0.329844, Final residual = 0.318701, No Iterations 10
GAMGPCG:  Solving for p_rgh, Initial residual = 0.32504, Final residual = 8.87312e-09, No Iterations 5
time step continuity errors : sum local = 2.21152e-11, global = 8.45452e-14, cumulative = 3.52656e-12

 TEqn Disperse 


 New alphaf terms

 New kf terms
Applying sauce
 Q_arc 
 Generating Heat Source Field 
heatSourceField max: 1 min: 0
 delHField 
source0 max: 1 min: 2.34419e-105

 Latent heat 

 Reached point X

 TEqn End 

smoothSolver:  Solving for T, Initial residual = 0.0386056, Final residual = 9.97488e-05, No Iterations 814

 TEqn Solved 

interfaceCells 198 weldCells 0 percentage 0
ExecutionTime = 7.41 s  ClockTime = 7 s

Courant Number mean: 2.7821e-11 max: 5.42915e-10
Interface Courant Number mean: 0 max: 0
deltaT = 0.0171429
Time = 0.3

 Generating Heat Alpha Field 
heatAlphaField max: 1 min: 0.999057
alpha0 max: 1 min: 0.999057
diagonal:  Solving for alpha.Phase1, Initial residual = 0, Final residual = 0, No Iterations 0
Phase Change 

diagonal:  Solving for alpha.Phase2, Initial residual = 0, Final residual = 0, No Iterations 0
diagonal:  Solving for alpha.Phase3, Initial residual = 0, Final residual = 0, No Iterations 0
2
alphaEqn Complete

 alpha2 Weighted Fraction: 0
gtawIncompressibleThreePhaseMixture Correct Called nu
nu Complete
mixture Complete
subCycle Complete
Marg Off
UEqn.H
UEqn
DILUPBiCG:  Solving for Ux, Initial residual = 4.16671e-09, Final residual = 1.83568e-24, No Iterations 1
DILUPBiCG:  Solving for Uz, Initial residual = 2.37283e-10, Final residual = 8.41219e-26, No Iterations 1
UEqn End
GAMG:  Solving for p_rgh, Initial residual = 0.83513, Final residual = 0.291082, No Iterations 10
GAMG:  Solving for p_rgh, Initial residual = 0.299268, Final residual = 0.325141, No Iterations 10
time step continuity errors : sum local = 1.89464e-11, global = -2.821e-13, cumulative = 3.24446e-12
GAMG:  Solving for p_rgh, Initial residual = 0.316376, Final residual = 0.305667, No Iterations 10
GAMG:  Solving for p_rgh, Initial residual = 0.306399, Final residual = 0.304935, No Iterations 10
time step continuity errors : sum local = 1.84674e-11, global = -5.35962e-13, cumulative = 2.70849e-12
GAMG:  Solving for p_rgh, Initial residual = 0.310896, Final residual = 0.309019, No Iterations 10
GAMGPCG:  Solving for p_rgh, Initial residual = 0.307408, Final residual = 5.12748e-09, No Iterations 5
time step continuity errors : sum local = 2.26125e-11, global = -4.23159e-13, cumulative = 2.28534e-12

 TEqn Disperse 


 New alphaf terms

 New kf terms
Applying sauce
 Q_arc 
 Generating Heat Source Field 
heatSourceField max: 1 min: 0
 delHField 
source0 max: 1 min: 2.34419e-105

 Latent heat 

 Reached point X

 TEqn End 

smoothSolver:  Solving for T, Initial residual = 0.0380012, Final residual = 9.96277e-05, No Iterations 812

 TEqn Solved 

interfaceCells 198 weldCells 0 percentage 0
ExecutionTime = 7.89 s  ClockTime = 8 s

Courant Number mean: 2.73337e-11 max: 7.46363e-10
Interface Courant Number mean: 0 max: 0
deltaT = 0.02
Time = 0.32

 Generating Heat Alpha Field 
heatAlphaField max: 1 min: 0.999057
alpha0 max: 1 min: 0.999057
diagonal:  Solving for alpha.Phase1, Initial residual = 0, Final residual = 0, No Iterations 0
Phase Change 

diagonal:  Solving for alpha.Phase2, Initial residual = 0, Final residual = 0, No Iterations 0
diagonal:  Solving for alpha.Phase3, Initial residual = 0, Final residual = 0, No Iterations 0
2
alphaEqn Complete

 alpha2 Weighted Fraction: 0
gtawIncompressibleThreePhaseMixture Correct Called nu
nu Complete
mixture Complete
subCycle Complete
Marg Off
UEqn.H
UEqn
DILUPBiCG:  Solving for Ux, Initial residual = 5.81088e-09, Final residual = 5.87994e-24, No Iterations 1
DILUPBiCG:  Solving for Uz, Initial residual = 3.19728e-10, Final residual = 1.34243e-26, No Iterations 1
UEqn End
GAMG:  Solving for p_rgh, Initial residual = 0.849421, Final residual = 0.326242, No Iterations 10
GAMG:  Solving for p_rgh, Initial residual = 0.355503, Final residual = 0.370363, No Iterations 10
time step continuity errors : sum local = 3.64571e-11, global = 6.57973e-14, cumulative = 2.35113e-12
GAMG:  Solving for p_rgh, Initial residual = 0.359185, Final residual = 0.370774, No Iterations 10
[...]

 Latent heat 

 Reached point X

 TEqn End 

smoothSolver:  Solving for T, Initial residual = 9.63768e-05, Final residual = 9.63768e-05, No Iterations 0

 TEqn Solved 

interfaceCells 198 weldCells 30 percentage 0.151515
ExecutionTime = 114.85 s  ClockTime = 115 s

Courant Number mean: 0.00707192 max: 0.498574
Interface Courant Number mean: 9.30049e-05 max: 0.0218179
deltaT = 4.44701e-05
Time = 3.56336

 Generating Heat Alpha Field 
heatAlphaField max: 1 min: 0.999057
alpha0 max: 1 min: 0.999057
diagonal:  Solving for alpha.Phase1, Initial residual = 0, Final residual = 0, No Iterations 0
Phase Change 

diagonal:  Solving for alpha.Phase2, Initial residual = 0, Final residual = 0, No Iterations 0
diagonal:  Solving for alpha.Phase3, Initial residual = 0, Final residual = 0, No Iterations 0
2
alphaEqn Complete

 alpha2 Weighted Fraction: 0.183064
gtawIncompressibleThreePhaseMixture Correct Called nu
nu Complete
mixture Complete
subCycle Complete
Marg Off
UEqn.H
UEqn
DILUPBiCG:  Solving for Ux, Initial residual = 1.65179e-08, Final residual = 2.40944e-11, No Iterations 1
DILUPBiCG:  Solving for Uz, Initial residual = 3.0763e-06, Final residual = 7.80136e-15, No Iterations 2
UEqn End
GAMG:  Solving for p_rgh, Initial residual = 0.00358715, Final residual = 2.28222e-05, No Iterations 1
GAMG:  Solving for p_rgh, Initial residual = 2.28835e-05, Final residual = 1.04851e-06, No Iterations 2
time step continuity errors : sum local = 7.15737e-09, global = -2.66396e-09, cumulative = 0.0240514
GAMG:  Solving for p_rgh, Initial residual = 3.58157e-05, Final residual = 4.11555e-07, No Iterations 1
GAMG:  Solving for p_rgh, Initial residual = 4.11545e-07, Final residual = 3.10186e-08, No Iterations 2
time step continuity errors : sum local = 2.1172e-10, global = -8.90813e-11, cumulative = 0.0240514
GAMG:  Solving for p_rgh, Initial residual = 1.90058e-06, Final residual = 3.8947e-08, No Iterations 1
GAMGPCG:  Solving for p_rgh, Initial residual = 3.89471e-08, Final residual = 3.89471e-08, No Iterations 0
time step continuity errors : sum local = 2.65837e-10, global = -2.45911e-10, cumulative = 0.0240514

 TEqn Disperse 


 New alphaf terms

 New kf terms
Applying sauce
 Q_arc 
 Generating Heat Source Field 
heatSourceField max: 1 min: 0
 delHField 
source0 max: 1 min: 6.23014e-109

 Latent heat 

 Reached point X

 TEqn End 

smoothSolver:  Solving for T, Initial residual = 9.65204e-05, Final residual = 9.65204e-05, No Iterations 0

 TEqn Solved 

interfaceCells 198 weldCells 30 percentage 0.151515
ExecutionTime = 114.93 s  ClockTime = 115 s

Courant Number mean: 0.0070812 max: 0.4988
Interface Courant Number mean: 9.32853e-05 max: 0.0217807
deltaT = 4.45242e-05
Time = 3.5634

 Generating Heat Alpha Field 
heatAlphaField max: 1 min: 0.999057
alpha0 max: 1 min: 0.999057
diagonal:  Solving for alpha.Phase1, Initial residual = 0, Final residual = 0, No Iterations 0
Phase Change 

diagonal:  Solving for alpha.Phase2, Initial residual = 0, Final residual = 0, No Iterations 0
diagonal:  Solving for alpha.Phase3, Initial residual = 0, Final residual = 0, No Iterations 0
2
alphaEqn Complete

 alpha2 Weighted Fraction: 0.183066
gtawIncompressibleThreePhaseMixture Correct Called nu
nu Complete
mixture Complete
subCycle Complete
Marg Off
UEqn.H
UEqn
DILUPBiCG:  Solving for Ux, Initial residual = 1.63064e-08, Final residual = 1.9447e-11, No Iterations 1
DILUPBiCG:  Solving for Uz, Initial residual = 2.88869e-06, Final residual = 7.59947e-15, No Iterations 2
UEqn End
GAMG:  Solving for p_rgh, Initial residual = 0.00361193, Final residual = 2.30842e-05, No Iterations 1
GAMG:  Solving for p_rgh, Initial residual = 2.31473e-05, Final residual = 1.06199e-06, No Iterations 2
time step continuity errors : sum local = 7.22961e-09, global = -2.81133e-09, cumulative = 0.0240514
GAMG:  Solving for p_rgh, Initial residual = 3.5522e-05, Final residual = 4.22461e-07, No Iterations 1
GAMG:  Solving for p_rgh, Initial residual = 4.2245e-07, Final residual = 3.57865e-08, No Iterations 2
time step continuity errors : sum local = 2.43599e-10, global = -1.37124e-10, cumulative = 0.0240514
GAMG:  Solving for p_rgh, Initial residual = 1.95797e-06, Final residual = 4.749e-08, No Iterations 1
GAMGPCG:  Solving for p_rgh, Initial residual = 4.74901e-08, Final residual = 4.74901e-08, No Iterations 0
time step continuity errors : sum local = 3.23265e-10, global = -3.16638e-10, cumulative = 0.0240514

 TEqn Disperse 


 New alphaf terms

 New kf terms
Applying sauce
 Q_arc 
 Generating Heat Source Field 
heatSourceField max: 1 min: 0
 delHField 
source0 max: 1 min: 6.19344e-109

 Latent heat 

 Reached point X

 TEqn End 

smoothSolver:  Solving for T, Initial residual = 9.65469e-05, Final residual = 9.65469e-05, No Iterations 0

 TEqn Solved 

interfaceCells 198 weldCells 30 percentage 0.151515
ExecutionTime = 115.01 s  ClockTime = 115 s

Courant Number mean: 0.00708249 max: 0.498405
Interface Courant Number mean: 9.34454e-05 max: 0.0217196
deltaT = 4.46328e-05
Time = 3.56345

 Generating Heat Alpha Field 
heatAlphaField max: 1 min: 0.999057
alpha0 max: 1 min: 0.999057
diagonal:  Solving for alpha.Phase1, Initial residual = 0, Final residual = 0, No Iterations 0
Phase Change 

diagonal:  Solving for alpha.Phase2, Initial residual = 0, Final residual = 0, No Iterations 0
diagonal:  Solving for alpha.Phase3, Initial residual = 0, Final residual = 0, No Iterations 0
2
alphaEqn Complete

 alpha2 Weighted Fraction: 0.183069
gtawIncompressibleThreePhaseMixture Correct Called nu
nu Complete
mixture Complete
subCycle Complete
Marg Off
UEqn.H
UEqn
DILUPBiCG:  Solving for Ux, Initial residual = 1.60687e-08, Final residual = 1.74128e-11, No Iterations 1
DILUPBiCG:  Solving for Uz, Initial residual = 2.71861e-06, Final residual = 7.51777e-15, No Iterations 2
UEqn End
GAMG:  Solving for p_rgh, Initial residual = 0.00371741, Final residual = 2.32127e-05, No Iterations 1
GAMG:  Solving for p_rgh, Initial residual = 2.32812e-05, Final residual = 1.0431e-06, No Iterations 2
time step continuity errors : sum local = 7.09612e-09, global = -2.64697e-09, cumulative = 0.0240514
GAMG:  Solving for p_rgh, Initial residual = 3.64221e-05, Final residual = 4.0963e-07, No Iterations 1
GAMG:  Solving for p_rgh, Initial residual = 4.09619e-07, Final residual = 3.07497e-08, No Iterations 2
time step continuity errors : sum local = 2.09167e-10, global = -8.70072e-11, cumulative = 0.0240514
GAMG:  Solving for p_rgh, Initial residual = 1.90358e-06, Final residual = 3.8942e-08, No Iterations 1
GAMGPCG:  Solving for p_rgh, Initial residual = 3.89421e-08, Final residual = 3.89421e-08, No Iterations 0
time step continuity errors : sum local = 2.64893e-10, global = -2.43669e-10, cumulative = 0.0240514

 TEqn Disperse 


 New alphaf terms

 New kf terms
Applying sauce
 Q_arc 
 Generating Heat Source Field 
heatSourceField max: 1 min: 0
 delHField 
source0 max: 1 min: 6.15686e-109

 Latent heat 

 Reached point X

 TEqn End 

smoothSolver:  Solving for T, Initial residual = 9.66889e-05, Final residual = 9.66889e-05, No Iterations 0

 TEqn Solved 

interfaceCells 198 weldCells 30 percentage 0.151515
ExecutionTime = 115.08 s  ClockTime = 115 s

Courant Number mean: 0.00709312 max: 0.49864
Interface Courant Number mean: 9.63934e-05 max: 0.0216874
deltaT = 4.4742e-05
Time = 3.56349

 Generating Heat Alpha Field 
heatAlphaField max: 1 min: 0.999057
alpha0 max: 1 min: 0.999057
diagonal:  Solving for alpha.Phase1, Initial residual = 0, Final residual = 0, No Iterations 0
Phase Change 

diagonal:  Solving for alpha.Phase2, Initial residual = 0, Final residual = 0, No Iterations 0
diagonal:  Solving for alpha.Phase3, Initial residual = 0, Final residual = 0, No Iterations 0
2
alphaEqn Complete

 alpha2 Weighted Fraction: 0.183071
gtawIncompressibleThreePhaseMixture Correct Called nu
nu Complete
mixture Complete
subCycle Complete
Marg Off
UEqn.H
UEqn
DILUPBiCG:  Solving for Ux, Initial residual = 1.5803e-08, Final residual = 1.45603e-11, No Iterations 1
DILUPBiCG:  Solving for Uz, Initial residual = 2.56243e-06, Final residual = 7.4169e-15, No Iterations 2
UEqn End
GAMG:  Solving for p_rgh, Initial residual = 0.00378616, Final residual = 2.37871e-05, No Iterations 1
GAMG:  Solving for p_rgh, Initial residual = 2.38608e-05, Final residual = 1.08365e-06, No Iterations 2
time step continuity errors : sum local = 7.36523e-09, global = -2.877e-09, cumulative = 0.0240514
GAMG:  Solving for p_rgh, Initial residual = 3.72352e-05, Final residual = 4.2395e-07, No Iterations 1
GAMG:  Solving for p_rgh, Initial residual = 4.23938e-07, Final residual = 3.12236e-08, No Iterations 2
time step continuity errors : sum local = 2.12194e-10, global = -8.89055e-11, cumulative = 0.0240514
GAMG:  Solving for p_rgh, Initial residual = 1.97463e-06, Final residual = 4.13875e-08, No Iterations 1
GAMGPCG:  Solving for p_rgh, Initial residual = 4.13876e-08, Final residual = 4.13876e-08, No Iterations 0
time step continuity errors : sum local = 2.81268e-10, global = -2.58964e-10, cumulative = 0.0240514

 TEqn Disperse 


 New alphaf terms

 New kf terms
Applying sauce
 Q_arc 
 Generating Heat Source Field 
heatSourceField max: 1 min: 0
 delHField 
source0 max: 1 min: 6.12042e-109

 Latent heat 

 Reached point X

 TEqn End 

smoothSolver:  Solving for T, Initial residual = 9.68304e-05, Final residual = 9.68304e-05, No Iterations 0

 TEqn Solved 

interfaceCells 198 weldCells 30 percentage 0.151515
ExecutionTime = 115.15 s  ClockTime = 115 s

Courant Number mean: 0.0071034 max: 0.498888
Interface Courant Number mean: 9.66585e-05 max: 0.0216577
deltaT = 4.47969e-05
Time = 3.56354

 Generating Heat Alpha Field 
heatAlphaField max: 1 min: 0.999057
alpha0 max: 1 min: 0.999057
diagonal:  Solving for alpha.Phase1, Initial residual = 0, Final residual = 0, No Iterations 0
Phase Change 

diagonal:  Solving for alpha.Phase2, Initial residual = 0, Final residual = 0, No Iterations 0
diagonal:  Solving for alpha.Phase3, Initial residual = 0, Final residual = 0, No Iterations 0
2
alphaEqn Complete

 alpha2 Weighted Fraction: 0.183074
gtawIncompressibleThreePhaseMixture Correct Called nu
nu Complete
mixture Complete
subCycle Complete
Marg Off
UEqn.H
UEqn
DILUPBiCG:  Solving for Ux, Initial residual = 1.55286e-08, Final residual = 1.25802e-11, No Iterations 1
DILUPBiCG:  Solving for Uz, Initial residual = 2.42278e-06, Final residual = 7.30533e-15, No Iterations 2
UEqn End
GAMG:  Solving for p_rgh, Initial residual = 0.00379565, Final residual = 2.38004e-05, No Iterations 1
GAMG:  Solving for p_rgh, Initial residual = 2.38753e-05, Final residual = 1.08665e-06, No Iterations 2
time step continuity errors : sum local = 7.36086e-09, global = -2.83818e-09, cumulative = 0.0240514
GAMG:  Solving for p_rgh, Initial residual = 3.65047e-05, Final residual = 4.28831e-07, No Iterations 1
GAMG:  Solving for p_rgh, Initial residual = 4.28819e-07, Final residual = 3.65068e-08, No Iterations 2
time step continuity errors : sum local = 2.47267e-10, global = -1.38139e-10, cumulative = 0.0240514
GAMG:  Solving for p_rgh, Initial residual = 1.99509e-06, Final residual = 4.87344e-08, No Iterations 1
GAMGPCG:  Solving for p_rgh, Initial residual = 4.87344e-08, Final residual = 4.87344e-08, No Iterations 0
time step continuity errors : sum local = 3.30088e-10, global = -3.23106e-10, cumulative = 0.0240514

 TEqn Disperse 


 New alphaf terms

 New kf terms
Applying sauce
 Q_arc 
 Generating Heat Source Field 
heatSourceField max: 1 min: 0
 delHField 
source0 max: 1 min: 6.08414e-109

 Latent heat 

 Reached point X

 TEqn End 

smoothSolver:  Solving for T, Initial residual = 9.68569e-05, Final residual = 9.68569e-05, No Iterations 0

 TEqn Solved 

interfaceCells 198 weldCells 30 percentage 0.151515
ExecutionTime = 115.22 s  ClockTime = 115 s

Courant Number mean: 0.00710441 max: 0.498507
Interface Courant Number mean: 9.72435e-05 max: 0.021604
deltaT = 4.49073e-05
Time = 3.56358

 Generating Heat Alpha Field 
heatAlphaField max: 1 min: 0.999057
alpha0 max: 1 min: 0.999057
diagonal:  Solving for alpha.Phase1, Initial residual = 0, Final residual = 0, No Iterations 0
Phase Change 

diagonal:  Solving for alpha.Phase2, Initial residual = 0, Final residual = 0, No Iterations 0
diagonal:  Solving for alpha.Phase3, Initial residual = 0, Final residual = 0, No Iterations 0
2
alphaEqn Complete

 alpha2 Weighted Fraction: 0.183076
gtawIncompressibleThreePhaseMixture Correct Called nu
nu Complete
mixture Complete
subCycle Complete
Marg Off
UEqn.H
UEqn
DILUPBiCG:  Solving for Ux, Initial residual = 1.52735e-08, Final residual = 1.17077e-11, No Iterations 1
DILUPBiCG:  Solving for Uz, Initial residual = 2.30119e-06, Final residual = 7.24989e-15, No Iterations 2
UEqn End
GAMG:  Solving for p_rgh, Initial residual = 0.00388611, Final residual = 2.37705e-05, No Iterations 1
GAMG:  Solving for p_rgh, Initial residual = 2.38503e-05, Final residual = 1.05978e-06, No Iterations 2
time step continuity errors : sum local = 7.16967e-09, global = -2.62683e-09, cumulative = 0.0240514
GAMG:  Solving for p_rgh, Initial residual = 3.72023e-05, Final residual = 4.13911e-07, No Iterations 1
GAMG:  Solving for p_rgh, Initial residual = 4.139e-07, Final residual = 3.13368e-08, No Iterations 2
time step continuity errors : sum local = 2.11975e-10, global = -8.71643e-11, cumulative = 0.0240514
GAMG:  Solving for p_rgh, Initial residual = 1.92132e-06, Final residual = 3.9584e-08, No Iterations 1
GAMGPCG:  Solving for p_rgh, Initial residual = 3.95841e-08, Final residual = 3.95841e-08, No Iterations 0
time step continuity errors : sum local = 2.67763e-10, global = -2.46283e-10, cumulative = 0.0240514

 TEqn Disperse 


 New alphaf terms

 New kf terms
Applying sauce
 Q_arc 
 Generating Heat Source Field 
heatSourceField max: 1 min: 0
 delHField 
source0 max: 1 min: 6.04799e-109

 Latent heat 

 Reached point X

 TEqn End 

smoothSolver:  Solving for T, Initial residual = 9.69964e-05, Final residual = 9.69964e-05, No Iterations 0

 TEqn Solved 

interfaceCells 198 weldCells 30 percentage 0.151515
ExecutionTime = 115.29 s  ClockTime = 115 s

Courant Number mean: 0.00711377 max: 0.498763
Interface Courant Number mean: 9.75012e-05 max: 0.0215793
deltaT = 4.50183e-05
Time = 3.56363

 Generating Heat Alpha Field 
heatAlphaField max: 1 min: 0.999057
alpha0 max: 1 min: 0.999057
diagonal:  Solving for alpha.Phase1, Initial residual = 0, Final residual = 0, No Iterations 0
Phase Change 

diagonal:  Solving for alpha.Phase2, Initial residual = 0, Final residual = 0, No Iterations 0
diagonal:  Solving for alpha.Phase3, Initial residual = 0, Final residual = 0, No Iterations 0
2
alphaEqn Complete

 alpha2 Weighted Fraction: 0.183078
gtawIncompressibleThreePhaseMixture Correct Called nu
nu Complete
mixture Complete
subCycle Complete
Marg Off
UEqn.H
UEqn
DILUPBiCG:  Solving for Ux, Initial residual = 1.5042e-08, Final residual = 1.02193e-11, No Iterations 1
DILUPBiCG:  Solving for Uz, Initial residual = 2.19134e-06, Final residual = 7.16807e-15, No Iterations 2
UEqn End
GAMG:  Solving for p_rgh, Initial residual = 0.00394028, Final residual = 2.42099e-05, No Iterations 1
GAMG:  Solving for p_rgh, Initial residual = 2.42947e-05, Final residual = 1.09839e-06, No Iterations 2
time step continuity errors : sum local = 7.41975e-09, global = -2.82967e-09, cumulative = 0.0240514
GAMG:  Solving for p_rgh, Initial residual = 3.79331e-05, Final residual = 4.27481e-07, No Iterations 1
GAMG:  Solving for p_rgh, Initial residual = 4.27468e-07, Final residual = 3.16547e-08, No Iterations 2
time step continuity errors : sum local = 2.13804e-10, global = -8.78427e-11, cumulative = 0.0240514
GAMG:  Solving for p_rgh, Initial residual = 1.98479e-06, Final residual = 4.18265e-08, No Iterations 1
GAMGPCG:  Solving for p_rgh, Initial residual = 4.18265e-08, Final residual = 4.18265e-08, No Iterations 0
time step continuity errors : sum local = 2.82508e-10, global = -2.59845e-10, cumulative = 0.0240514

 TEqn Disperse 


 New alphaf terms

 New kf terms
Applying sauce
 Q_arc 
 Generating Heat Source Field 
heatSourceField max: 1 min: 0
 delHField 
source0 max: 1 min: 6.01197e-109

 Latent heat 

 Reached point X

 TEqn End 

smoothSolver:  Solving for T, Initial residual = 9.71355e-05, Final residual = 9.71355e-05, No Iterations 0

 TEqn Solved 

interfaceCells 198 weldCells 30 percentage 0.151515
ExecutionTime = 115.36 s  ClockTime = 115 s

Courant Number mean: 0.00712287 max: 0.499033
Interface Courant Number mean: 9.7754e-05 max: 0.021557
deltaT = 4.50741e-05
Time = 3.56367

 Generating Heat Alpha Field 
heatAlphaField max: 1 min: 0.999057
alpha0 max: 1 min: 0.999057
diagonal:  Solving for alpha.Phase1, Initial residual = 0, Final residual = 0, No Iterations 0
Phase Change 

diagonal:  Solving for alpha.Phase2, Initial residual = 0, Final residual = 0, No Iterations 0
diagonal:  Solving for alpha.Phase3, Initial residual = 0, Final residual = 0, No Iterations 0
2
alphaEqn Complete

 alpha2 Weighted Fraction: 0.18308
gtawIncompressibleThreePhaseMixture Correct Called nu
nu Complete
mixture Complete
subCycle Complete
Marg Off
UEqn.H
UEqn
DILUPBiCG:  Solving for Ux, Initial residual = 1.48201e-08, Final residual = 9.19252e-12, No Iterations 1
DILUPBiCG:  Solving for Uz, Initial residual = 2.09446e-06, Final residual = 7.06981e-15, No Iterations 2
UEqn End
GAMG:  Solving for p_rgh, Initial residual = 0.00393405, Final residual = 2.41214e-05, No Iterations 1
GAMG:  Solving for p_rgh, Initial residual = 2.42068e-05, Final residual = 1.10008e-06, No Iterations 2
time step continuity errors : sum local = 7.4019e-09, global = -2.78738e-09, cumulative = 0.0240514
GAMG:  Solving for p_rgh, Initial residual = 3.71147e-05, Final residual = 4.32578e-07, No Iterations 1
GAMG:  Solving for p_rgh, Initial residual = 4.32565e-07, Final residual = 3.68664e-08, No Iterations 2
time step continuity errors : sum local = 2.48023e-10, global = -1.36428e-10, cumulative = 0.0240514
GAMG:  Solving for p_rgh, Initial residual = 2.00027e-06, Final residual = 4.90635e-08, No Iterations 1
GAMGPCG:  Solving for p_rgh, Initial residual = 4.90636e-08, Final residual = 4.90636e-08, No Iterations 0
time step continuity errors : sum local = 3.30081e-10, global = -3.22825e-10, cumulative = 0.0240514

 TEqn Disperse 


 New alphaf terms

 New kf terms
Applying sauce
 Q_arc 
 Generating Heat Source Field 
heatSourceField max: 1 min: 0
 delHField 
source0 max: 1 min: 5.97611e-109

 Latent heat 

 Reached point X

 TEqn End 

smoothSolver:  Solving for T, Initial residual = 9.71535e-05, Final residual = 9.71535e-05, No Iterations 0

 TEqn Solved 

interfaceCells 198 weldCells 30 percentage 0.151515
ExecutionTime = 115.43 s  ClockTime = 115 s

Courant Number mean: 0.00712272 max: 0.498668
Interface Courant Number mean: 9.78797e-05 max: 0.0215104
deltaT = 4.51862e-05
Time = 3.56372

 Generating Heat Alpha Field 
heatAlphaField max: 1 min: 0.999057
alpha0 max: 1 min: 0.999057
diagonal:  Solving for alpha.Phase1, Initial residual = 0, Final residual = 0, No Iterations 0
Phase Change 

diagonal:  Solving for alpha.Phase2, Initial residual = 0, Final residual = 0, No Iterations 0
diagonal:  Solving for alpha.Phase3, Initial residual = 0, Final residual = 0, No Iterations 0
2
alphaEqn Complete

 alpha2 Weighted Fraction: 0.183082
gtawIncompressibleThreePhaseMixture Correct Called nu
nu Complete
mixture Complete
subCycle Complete
Marg Off
UEqn.H
UEqn
DILUPBiCG:  Solving for Ux, Initial residual = 1.46379e-08, Final residual = 8.87041e-12, No Iterations 1
DILUPBiCG:  Solving for Uz, Initial residual = 2.00759e-06, Final residual = 7.01055e-15, No Iterations 2
UEqn End
GAMG:  Solving for p_rgh, Initial residual = 0.00400892, Final residual = 2.40099e-05, No Iterations 1
GAMG:  Solving for p_rgh, Initial residual = 2.41006e-05, Final residual = 1.0711e-06, No Iterations 2
time step continuity errors : sum local = 7.1932e-09, global = -2.60289e-09, cumulative = 0.0240514
